<?xml version='1.0' encoding='UTF-8'?>
<routes xmlns:xsi="http://www.w3.org/2001/XMLSchema-instance" xsi:noNamespaceSchemaLocation="http://sumo.dlr.de/xsd/routes_file.xsd">
  <route id="route-104441115#0_0" edges="-104441115#0"/>
  <route id="route-104441115#1_0" edges="-104441115#1"/>
  <route id="route-104441115#2_0" edges="-104441115#2"/>
  <route id="route-104441115#3_0" edges="-104441115#3"/>
  <route id="route-104441120#0_0" edges="-104441120#0"/>
  <route id="route-104441120#1_0" edges="-104441120#1"/>
  <route id="route-104441120#2_0" edges="-104441120#2"/>
  <route id="route-104441120#3_0" edges="-104441120#3"/>
  <route id="route-104441120#4_0" edges="-104441120#4"/>
  <route id="route-104441120#5_0" edges="-104441120#5"/>
  <route id="route-107414306#0_0" edges="-107414306#0"/>
  <route id="route-107414306#1_0" edges="-107414306#1"/>
  <route id="route-107414306#2_0" edges="-107414306#2"/>
  <route id="route-107414306#3_0" edges="-107414306#3"/>
  <route id="route-107414306#4_0" edges="-107414306#4"/>
  <route id="route-107414306#5_0" edges="-107414306#5"/>
  <route id="route-107414306#6_0" edges="-107414306#6"/>
  <route id="route-107414307#0_0" edges="-107414307#0"/>
  <route id="route-107414307#1_0" edges="-107414307#1"/>
  <route id="route-107414307#2_0" edges="-107414307#2"/>
  <route id="route-107414312#0_0" edges="-107414312#0"/>
  <route id="route-107414312#1_0" edges="-107414312#1"/>
  <route id="route-107414312#2_0" edges="-107414312#2"/>
  <route id="route-107414312#3_0" edges="-107414312#3"/>
  <route id="route-107414312#4_0" edges="-107414312#4"/>
  <route id="route-107414312#5_0" edges="-107414312#5"/>
  <route id="route-107414312#6_0" edges="-107414312#6"/>
  <route id="route-107414312#7_0" edges="-107414312#7"/>
  <route id="route-107414312#8_0" edges="-107414312#8"/>
  <route id="route-107761125#0_0" edges="-107761125#0"/>
  <route id="route-107761125#1_0" edges="-107761125#1"/>
  <route id="route-107761125#2_0" edges="-107761125#2"/>
  <route id="route-107761125#3_0" edges="-107761125#3"/>
  <route id="route-107919459_0" edges="-107919459"/>
  <route id="route-107920604#0_0" edges="-107920604#0"/>
  <route id="route-107920604#1_0" edges="-107920604#1"/>
  <route id="route-107920604#2_0" edges="-107920604#2"/>
  <route id="route-107920604#3_0" edges="-107920604#3"/>
  <route id="route-107920604#4_0" edges="-107920604#4"/>
  <route id="route-107920604#5_0" edges="-107920604#5"/>
  <route id="route-107920604#6_0" edges="-107920604#6"/>
  <route id="route-107920604#7_0" edges="-107920604#7"/>
  <route id="route-107920604#8_0" edges="-107920604#8"/>
  <route id="route-107920604#9_0" edges="-107920604#9"/>
  <route id="route-108982422_0" edges="-108982422"/>
  <route id="route-108982423_0" edges="-108982423"/>
  <route id="route-109023440_0" edges="-109023440"/>
  <route id="route-111560682_0" edges="-111560682"/>
  <route id="route-11162459#0_0" edges="-11162459#0"/>
  <route id="route-11162459#1_0" edges="-11162459#1"/>
  <route id="route-11162459#2_0" edges="-11162459#2"/>
  <route id="route-11185521_0" edges="-11185521"/>
  <route id="route-11185522#0_0" edges="-11185522#0"/>
  <route id="route-11185522#1_0" edges="-11185522#1"/>
  <route id="route-11185522#2_0" edges="-11185522#2"/>
  <route id="route-11185522#3_0" edges="-11185522#3"/>
  <route id="route-11186284#0_0" edges="-11186284#0"/>
  <route id="route-11186284#1_0" edges="-11186284#1"/>
  <route id="route-11186518#0_0" edges="-11186518#0"/>
  <route id="route-11186518#1_0" edges="-11186518#1"/>
  <route id="route-11186518#2_0" edges="-11186518#2"/>
  <route id="route-11186518#3_0" edges="-11186518#3"/>
  <route id="route-11186518#4_0" edges="-11186518#4"/>
  <route id="route-11186518#5_0" edges="-11186518#5"/>
  <route id="route-11192269#0_0" edges="-11192269#0"/>
  <route id="route-11192269#1_0" edges="-11192269#1"/>
  <route id="route-11192269#2_0" edges="-11192269#2"/>
  <route id="route-11192269#3_0" edges="-11192269#3"/>
  <route id="route-11192269#4_0" edges="-11192269#4"/>
  <route id="route-11192269#5_0" edges="-11192269#5"/>
  <route id="route-11192269#6_0" edges="-11192269#6"/>
  <route id="route-11192269#7_0" edges="-11192269#7"/>
  <route id="route-11192269#8_0" edges="-11192269#8"/>
  <route id="route-11195889#0_0" edges="-11195889#0"/>
  <route id="route-11195889#1_0" edges="-11195889#1"/>
  <route id="route-11195889#2_0" edges="-11195889#2"/>
  <route id="route-11195889#3_0" edges="-11195889#3"/>
  <route id="route-11195889#4_0" edges="-11195889#4"/>
  <route id="route-11195889#5_0" edges="-11195889#5"/>
  <route id="route-11195889#6_0" edges="-11195889#6"/>
  <route id="route-11196779#0_0" edges="-11196779#0"/>
  <route id="route-11196779#1_0" edges="-11196779#1"/>
  <route id="route-11196779#2_0" edges="-11196779#2"/>
  <route id="route-11196779#3_0" edges="-11196779#3"/>
  <route id="route-11196779#4_0" edges="-11196779#4"/>
  <route id="route-11196779#5_0" edges="-11196779#5"/>
  <route id="route-11196780_0" edges="-11196780"/>
  <route id="route-11196784#0_0" edges="-11196784#0"/>
  <route id="route-11196784#1_0" edges="-11196784#1"/>
  <route id="route-11196785#0_0" edges="-11196785#0"/>
  <route id="route-11196785#1_0" edges="-11196785#1"/>
  <route id="route-11196785#2_0" edges="-11196785#2"/>
  <route id="route-11315152#0_0" edges="-11315152#0"/>
  <route id="route-11315152#1_0" edges="-11315152#1"/>
  <route id="route-11315153_0" edges="-11315153"/>
  <route id="route-11315154_0" edges="-11315154"/>
  <route id="route-11315156#0_0" edges="-11315156#0"/>
  <route id="route-11315156#1_0" edges="-11315156#1"/>
  <route id="route-11315282_0" edges="-11315282"/>
  <route id="route-11315404_0" edges="-11315404"/>
  <route id="route-11315406#0_0" edges="-11315406#0"/>
  <route id="route-11315406#1_0" edges="-11315406#1"/>
  <route id="route-11315406#2_0" edges="-11315406#2"/>
  <route id="route-11315799_0" edges="-11315799"/>
  <route id="route-11315800#0_0" edges="-11315800#0"/>
  <route id="route-11315800#1_0" edges="-11315800#1"/>
  <route id="route-11315800#2_0" edges="-11315800#2"/>
  <route id="route-11315800#3_0" edges="-11315800#3"/>
  <route id="route-11315800#4_0" edges="-11315800#4"/>
  <route id="route-11315800#5_0" edges="-11315800#5"/>
  <route id="route-11315848#0_0" edges="-11315848#0"/>
  <route id="route-11315848#1_0" edges="-11315848#1"/>
  <route id="route-11315850#0_0" edges="-11315850#0"/>
  <route id="route-11315850#1_0" edges="-11315850#1"/>
  <route id="route-11315979#0_0" edges="-11315979#0"/>
  <route id="route-11315979#1_0" edges="-11315979#1"/>
  <route id="route-11416107_0" edges="-11416107"/>
  <route id="route-120256349_0" edges="-120256349"/>
  <route id="route-131782321_0" edges="-131782321"/>
  <route id="route-131800689_0" edges="-131800689"/>
  <route id="route-131820353#0_0" edges="-131820353#0"/>
  <route id="route-131820353#1_0" edges="-131820353#1"/>
  <route id="route-131820353#2_0" edges="-131820353#2"/>
  <route id="route-131820353#3_0" edges="-131820353#3"/>
  <route id="route-131820353#4_0" edges="-131820353#4"/>
  <route id="route-131820353#5_0" edges="-131820353#5"/>
  <route id="route-131820353#6_0" edges="-131820353#6"/>
  <route id="route-131820770#0_0" edges="-131820770#0"/>
  <route id="route-131820770#1_0" edges="-131820770#1"/>
  <route id="route-131820770#2_0" edges="-131820770#2"/>
  <route id="route-131937147#0_0" edges="-131937147#0"/>
  <route id="route-131937147#1_0" edges="-131937147#1"/>
  <route id="route-131937148#0_0" edges="-131937148#0"/>
  <route id="route-131937148#1_0" edges="-131937148#1"/>
  <route id="route-131937148#2_0" edges="-131937148#2"/>
  <route id="route-131937149#0_0" edges="-131937149#0"/>
  <route id="route-131937149#1_0" edges="-131937149#1"/>
  <route id="route-131937149#2_0" edges="-131937149#2"/>
  <route id="route-131937150_0" edges="-131937150"/>
  <route id="route-135110258_0" edges="-135110258"/>
  <route id="route-155368378#0_0" edges="-155368378#0"/>
  <route id="route-155368378#1_0" edges="-155368378#1"/>
  <route id="route-155368378#2_0" edges="-155368378#2"/>
  <route id="route-155368378#3_0" edges="-155368378#3"/>
  <route id="route-155368378#4_0" edges="-155368378#4"/>
  <route id="route-155368378#5_0" edges="-155368378#5"/>
  <route id="route-155368378#6_0" edges="-155368378#6"/>
  <route id="route-155368378#7_0" edges="-155368378#7"/>
  <route id="route-155368378#8_0" edges="-155368378#8"/>
  <route id="route-155368378#9_0" edges="-155368378#9"/>
  <route id="route-160325571#0_0" edges="-160325571#0"/>
  <route id="route-160325571#1_0" edges="-160325571#1"/>
  <route id="route-160325575#0_0" edges="-160325575#0"/>
  <route id="route-160325575#1_0" edges="-160325575#1"/>
  <route id="route-160325575#2_0" edges="-160325575#2"/>
  <route id="route-162921793#0_0" edges="-162921793#0"/>
  <route id="route-162921793#1_0" edges="-162921793#1"/>
  <route id="route-162921793#10_0" edges="-162921793#10"/>
  <route id="route-162921793#11_0" edges="-162921793#11"/>
  <route id="route-162921793#12_0" edges="-162921793#12"/>
  <route id="route-162921793#13_0" edges="-162921793#13"/>
  <route id="route-162921793#14_0" edges="-162921793#14"/>
  <route id="route-162921793#2_0" edges="-162921793#2"/>
  <route id="route-162921793#3_0" edges="-162921793#3"/>
  <route id="route-162921793#4_0" edges="-162921793#4"/>
  <route id="route-162921793#5_0" edges="-162921793#5"/>
  <route id="route-162921793#6_0" edges="-162921793#6"/>
  <route id="route-162921793#7_0" edges="-162921793#7"/>
  <route id="route-162921793#8_0" edges="-162921793#8"/>
  <route id="route-162921793#9_0" edges="-162921793#9"/>
  <route id="route-162921794#0_0" edges="-162921794#0"/>
  <route id="route-162921794#1_0" edges="-162921794#1"/>
  <route id="route-162921794#2_0" edges="-162921794#2"/>
  <route id="route-162921794#3_0" edges="-162921794#3"/>
  <route id="route-162921794#4_0" edges="-162921794#4"/>
  <route id="route-162921794#5_0" edges="-162921794#5"/>
  <route id="route-162921796#0_0" edges="-162921796#0"/>
  <route id="route-162921796#1_0" edges="-162921796#1"/>
  <route id="route-162921796#2_0" edges="-162921796#2"/>
  <route id="route-162921796#3_0" edges="-162921796#3"/>
  <route id="route-162921796#4_0" edges="-162921796#4"/>
  <route id="route-162921796#5_0" edges="-162921796#5"/>
  <route id="route-162921797_0" edges="-162921797"/>
  <route id="route-162922154_0" edges="-162922154"/>
  <route id="route-162925356#0_0" edges="-162925356#0"/>
  <route id="route-162925356#1_0" edges="-162925356#1"/>
  <route id="route-162925356#2_0" edges="-162925356#2"/>
  <route id="route-163750578#0_0" edges="-163750578#0"/>
  <route id="route-163750578#1_0" edges="-163750578#1"/>
  <route id="route-163750578#2_0" edges="-163750578#2"/>
  <route id="route-163750578#3_0" edges="-163750578#3"/>
  <route id="route-167705463#0_0" edges="-167705463#0"/>
  <route id="route-167705463#1_0" edges="-167705463#1"/>
  <route id="route-167705463#2_0" edges="-167705463#2"/>
  <route id="route-167705463#3_0" edges="-167705463#3"/>
  <route id="route-167705463#4_0" edges="-167705463#4"/>
  <route id="route-167705463#5_0" edges="-167705463#5"/>
  <route id="route-167705464_0" edges="-167705464"/>
  <route id="route-174701214#0_0" edges="-174701214#0"/>
  <route id="route-174701214#1_0" edges="-174701214#1"/>
  <route id="route-174701214#2_0" edges="-174701214#2"/>
  <route id="route-174822357#0_0" edges="-174822357#0"/>
  <route id="route-174822357#1_0" edges="-174822357#1"/>
  <route id="route-175129396_0" edges="-175129396"/>
  <route id="route-179235223_0" edges="-179235223"/>
  <route id="route-179235224_0" edges="-179235224"/>
  <route id="route-181380707#0_0" edges="-181380707#0"/>
  <route id="route-181380707#1_0" edges="-181380707#1"/>
  <route id="route-181380709#0_0" edges="-181380709#0"/>
  <route id="route-181380709#1_0" edges="-181380709#1"/>
  <route id="route-181380709#2_0" edges="-181380709#2"/>
  <route id="route-183343376#0_0" edges="-183343376#0"/>
  <route id="route-183343376#1_0" edges="-183343376#1"/>
  <route id="route-183343376#2_0" edges="-183343376#2"/>
  <route id="route-183343447#0_0" edges="-183343447#0"/>
  <route id="route-183343447#1_0" edges="-183343447#1"/>
  <route id="route-183343447#2_0" edges="-183343447#2"/>
  <route id="route-198399469_0" edges="-198399469"/>
  <route id="route-198399586_0" edges="-198399586"/>
  <route id="route-202009365#0_0" edges="-202009365#0"/>
  <route id="route-202009365#1_0" edges="-202009365#1"/>
  <route id="route-202009365#10_0" edges="-202009365#10"/>
  <route id="route-202009365#11_0" edges="-202009365#11"/>
  <route id="route-202009365#2_0" edges="-202009365#2"/>
  <route id="route-202009365#3_0" edges="-202009365#3"/>
  <route id="route-202009365#4_0" edges="-202009365#4"/>
  <route id="route-202009365#5_0" edges="-202009365#5"/>
  <route id="route-202009365#6_0" edges="-202009365#6"/>
  <route id="route-202009365#7_0" edges="-202009365#7"/>
  <route id="route-202009365#8_0" edges="-202009365#8"/>
  <route id="route-202009365#9_0" edges="-202009365#9"/>
  <route id="route-202317711_0" edges="-202317711"/>
  <route id="route-202455428_0" edges="-202455428"/>
  <route id="route-202455430#0_0" edges="-202455430#0"/>
  <route id="route-202455430#1_0" edges="-202455430#1"/>
  <route id="route-202455430#10_0" edges="-202455430#10"/>
  <route id="route-202455430#11_0" edges="-202455430#11"/>
  <route id="route-202455430#12_0" edges="-202455430#12"/>
  <route id="route-202455430#13_0" edges="-202455430#13"/>
  <route id="route-202455430#14_0" edges="-202455430#14"/>
  <route id="route-202455430#15_0" edges="-202455430#15"/>
  <route id="route-202455430#16_0" edges="-202455430#16"/>
  <route id="route-202455430#17_0" edges="-202455430#17"/>
  <route id="route-202455430#18_0" edges="-202455430#18"/>
  <route id="route-202455430#2_0" edges="-202455430#2"/>
  <route id="route-202455430#3_0" edges="-202455430#3"/>
  <route id="route-202455430#4_0" edges="-202455430#4"/>
  <route id="route-202455430#5_0" edges="-202455430#5"/>
  <route id="route-202455430#6_0" edges="-202455430#6"/>
  <route id="route-202455430#7_0" edges="-202455430#7"/>
  <route id="route-202455430#8_0" edges="-202455430#8"/>
  <route id="route-202455430#9_0" edges="-202455430#9"/>
  <route id="route-202455431#0_0" edges="-202455431#0"/>
  <route id="route-202455431#1_0" edges="-202455431#1"/>
  <route id="route-202455432#0_0" edges="-202455432#0"/>
  <route id="route-202455432#1_0" edges="-202455432#1"/>
  <route id="route-202455432#2_0" edges="-202455432#2"/>
  <route id="route-202455432#3_0" edges="-202455432#3"/>
  <route id="route-202455438#0_0" edges="-202455438#0"/>
  <route id="route-202455438#1_0" edges="-202455438#1"/>
  <route id="route-202455438#2_0" edges="-202455438#2"/>
  <route id="route-202455438#3_0" edges="-202455438#3"/>
  <route id="route-202455438#4_0" edges="-202455438#4"/>
  <route id="route-202455444#0_0" edges="-202455444#0"/>
  <route id="route-202455444#1_0" edges="-202455444#1"/>
  <route id="route-202455444#10_0" edges="-202455444#10"/>
  <route id="route-202455444#2_0" edges="-202455444#2"/>
  <route id="route-202455444#3_0" edges="-202455444#3"/>
  <route id="route-202455444#4_0" edges="-202455444#4"/>
  <route id="route-202455444#5_0" edges="-202455444#5"/>
  <route id="route-202455444#6_0" edges="-202455444#6"/>
  <route id="route-202455444#7_0" edges="-202455444#7"/>
  <route id="route-202455444#8_0" edges="-202455444#8"/>
  <route id="route-202455444#9_0" edges="-202455444#9"/>
  <route id="route-202455445_0" edges="-202455445"/>
  <route id="route-202455446#0_0" edges="-202455446#0"/>
  <route id="route-202455446#1_0" edges="-202455446#1"/>
  <route id="route-202455446#10_0" edges="-202455446#10"/>
  <route id="route-202455446#11_0" edges="-202455446#11"/>
  <route id="route-202455446#12_0" edges="-202455446#12"/>
  <route id="route-202455446#13_0" edges="-202455446#13"/>
  <route id="route-202455446#14_0" edges="-202455446#14"/>
  <route id="route-202455446#15_0" edges="-202455446#15"/>
  <route id="route-202455446#2_0" edges="-202455446#2"/>
  <route id="route-202455446#3_0" edges="-202455446#3"/>
  <route id="route-202455446#4_0" edges="-202455446#4"/>
  <route id="route-202455446#5_0" edges="-202455446#5"/>
  <route id="route-202455446#6_0" edges="-202455446#6"/>
  <route id="route-202455446#7_0" edges="-202455446#7"/>
  <route id="route-202455446#8_0" edges="-202455446#8"/>
  <route id="route-202455446#9_0" edges="-202455446#9"/>
  <route id="route-202455452#0_0" edges="-202455452#0"/>
  <route id="route-202455452#1_0" edges="-202455452#1"/>
  <route id="route-202459210_0" edges="-202459210"/>
  <route id="route-202459219#0_0" edges="-202459219#0"/>
  <route id="route-202459219#1_0" edges="-202459219#1"/>
  <route id="route-202459219#10_0" edges="-202459219#10"/>
  <route id="route-202459219#11_0" edges="-202459219#11"/>
  <route id="route-202459219#2_0" edges="-202459219#2"/>
  <route id="route-202459219#3_0" edges="-202459219#3"/>
  <route id="route-202459219#4_0" edges="-202459219#4"/>
  <route id="route-202459219#5_0" edges="-202459219#5"/>
  <route id="route-202459219#6_0" edges="-202459219#6"/>
  <route id="route-202459219#7_0" edges="-202459219#7"/>
  <route id="route-202459219#8_0" edges="-202459219#8"/>
  <route id="route-202459219#9_0" edges="-202459219#9"/>
  <route id="route-202459220#0_0" edges="-202459220#0"/>
  <route id="route-202459220#1_0" edges="-202459220#1"/>
  <route id="route-202459220#10_0" edges="-202459220#10"/>
  <route id="route-202459220#11_0" edges="-202459220#11"/>
  <route id="route-202459220#12_0" edges="-202459220#12"/>
  <route id="route-202459220#2_0" edges="-202459220#2"/>
  <route id="route-202459220#3_0" edges="-202459220#3"/>
  <route id="route-202459220#4_0" edges="-202459220#4"/>
  <route id="route-202459220#5_0" edges="-202459220#5"/>
  <route id="route-202459220#6_0" edges="-202459220#6"/>
  <route id="route-202459220#7_0" edges="-202459220#7"/>
  <route id="route-202459220#8_0" edges="-202459220#8"/>
  <route id="route-202459220#9_0" edges="-202459220#9"/>
  <route id="route-202459222#0_0" edges="-202459222#0"/>
  <route id="route-202459222#1_0" edges="-202459222#1"/>
  <route id="route-202459222#2_0" edges="-202459222#2"/>
  <route id="route-202459222#3_0" edges="-202459222#3"/>
  <route id="route-202459222#4_0" edges="-202459222#4"/>
  <route id="route-202459225_0" edges="-202459225"/>
  <route id="route-202459226#0_0" edges="-202459226#0"/>
  <route id="route-202459226#1_0" edges="-202459226#1"/>
  <route id="route-202459226#2_0" edges="-202459226#2"/>
  <route id="route-202459226#3_0" edges="-202459226#3"/>
  <route id="route-202459232_0" edges="-202459232"/>
  <route id="route-202459233#0_0" edges="-202459233#0"/>
  <route id="route-202459233#1_0" edges="-202459233#1"/>
  <route id="route-202459234_0" edges="-202459234"/>
  <route id="route-202459237#0_0" edges="-202459237#0"/>
  <route id="route-202459237#1_0" edges="-202459237#1"/>
  <route id="route-202459237#2_0" edges="-202459237#2"/>
  <route id="route-202459237#3_0" edges="-202459237#3"/>
  <route id="route-202459237#4_0" edges="-202459237#4"/>
  <route id="route-202459237#5_0" edges="-202459237#5"/>
  <route id="route-202459237#6_0" edges="-202459237#6"/>
  <route id="route-202459237#7_0" edges="-202459237#7"/>
  <route id="route-202459238#0_0" edges="-202459238#0"/>
  <route id="route-202459238#1_0" edges="-202459238#1"/>
  <route id="route-202459238#2_0" edges="-202459238#2"/>
  <route id="route-202459239#0_0" edges="-202459239#0"/>
  <route id="route-202459239#1_0" edges="-202459239#1"/>
  <route id="route-202485358_0" edges="-202485358"/>
  <route id="route-202485359_0" edges="-202485359"/>
  <route id="route-203164332#0_0" edges="-203164332#0"/>
  <route id="route-203164332#1_0" edges="-203164332#1"/>
  <route id="route-203164332#2_0" edges="-203164332#2"/>
  <route id="route-203164332#3_0" edges="-203164332#3"/>
  <route id="route-204884378#0_0" edges="-204884378#0"/>
  <route id="route-204884378#1_0" edges="-204884378#1"/>
  <route id="route-21448209#0_0" edges="-21448209#0"/>
  <route id="route-21448209#1_0" edges="-21448209#1"/>
  <route id="route-21448209#2_0" edges="-21448209#2"/>
  <route id="route-21448209#3_0" edges="-21448209#3"/>
  <route id="route-21448209#4_0" edges="-21448209#4"/>
  <route id="route-215819141#0_0" edges="-215819141#0"/>
  <route id="route-215819141#1_0" edges="-215819141#1"/>
  <route id="route-215819163_0" edges="-215819163"/>
  <route id="route-22374748_0" edges="-22374748"/>
  <route id="route-22374856#0_0" edges="-22374856#0"/>
  <route id="route-22374856#1_0" edges="-22374856#1"/>
  <route id="route-22374856#2_0" edges="-22374856#2"/>
  <route id="route-22374856#3_0" edges="-22374856#3"/>
  <route id="route-224200968_0" edges="-224200968"/>
  <route id="route-224373753_0" edges="-224373753"/>
  <route id="route-225432462#0_0" edges="-225432462#0"/>
  <route id="route-225432462#1_0" edges="-225432462#1"/>
  <route id="route-225432462#2_0" edges="-225432462#2"/>
  <route id="route-225518512#0_0" edges="-225518512#0"/>
  <route id="route-225518512#1_0" edges="-225518512#1"/>
  <route id="route-225719777_0" edges="-225719777"/>
  <route id="route-226336485_0" edges="-226336485"/>
  <route id="route-228186482#0_0" edges="-228186482#0"/>
  <route id="route-228186482#1_0" edges="-228186482#1"/>
  <route id="route-230135514#0_0" edges="-230135514#0"/>
  <route id="route-230135514#1_0" edges="-230135514#1"/>
  <route id="route-230139921#0_0" edges="-230139921#0"/>
  <route id="route-230139921#1_0" edges="-230139921#1"/>
  <route id="route-230139923#0_0" edges="-230139923#0"/>
  <route id="route-230139923#1_0" edges="-230139923#1"/>
  <route id="route-230139923#2_0" edges="-230139923#2"/>
  <route id="route-230139925_0" edges="-230139925"/>
  <route id="route-230616498#0_0" edges="-230616498#0"/>
  <route id="route-230616498#1_0" edges="-230616498#1"/>
  <route id="route-230616498#2_0" edges="-230616498#2"/>
  <route id="route-230616498#3_0" edges="-230616498#3"/>
  <route id="route-230616537#0_0" edges="-230616537#0"/>
  <route id="route-230616537#1_0" edges="-230616537#1"/>
  <route id="route-235635469#0_0" edges="-235635469#0"/>
  <route id="route-235635469#1_0" edges="-235635469#1"/>
  <route id="route-236578411_0" edges="-236578411"/>
  <route id="route-236660430_0" edges="-236660430"/>
  <route id="route-236741611_0" edges="-236741611"/>
  <route id="route-23969990#0_0" edges="-23969990#0"/>
  <route id="route-23969990#1_0" edges="-23969990#1"/>
  <route id="route-23969990#2_0" edges="-23969990#2"/>
  <route id="route-23969990#3_0" edges="-23969990#3"/>
  <route id="route-241001077_0" edges="-241001077"/>
  <route id="route-24245406_0" edges="-24245406"/>
  <route id="route-242896157#0_0" edges="-242896157#0"/>
  <route id="route-242896157#1_0" edges="-242896157#1"/>
  <route id="route-242896157#2_0" edges="-242896157#2"/>
  <route id="route-242896157#3_0" edges="-242896157#3"/>
  <route id="route-242896157#4_0" edges="-242896157#4"/>
  <route id="route-24501638#0_0" edges="-24501638#0"/>
  <route id="route-24501638#1_0" edges="-24501638#1"/>
  <route id="route-24501638#10_0" edges="-24501638#10"/>
  <route id="route-24501638#11_0" edges="-24501638#11"/>
  <route id="route-24501638#12_0" edges="-24501638#12"/>
  <route id="route-24501638#13_0" edges="-24501638#13"/>
  <route id="route-24501638#2_0" edges="-24501638#2"/>
  <route id="route-24501638#3_0" edges="-24501638#3"/>
  <route id="route-24501638#4_0" edges="-24501638#4"/>
  <route id="route-24501638#5_0" edges="-24501638#5"/>
  <route id="route-24501638#6_0" edges="-24501638#6"/>
  <route id="route-24501638#7_0" edges="-24501638#7"/>
  <route id="route-24501638#8_0" edges="-24501638#8"/>
  <route id="route-24501638#9_0" edges="-24501638#9"/>
  <route id="route-24501646#0_0" edges="-24501646#0"/>
  <route id="route-24501646#1_0" edges="-24501646#1"/>
  <route id="route-24501646#2_0" edges="-24501646#2"/>
  <route id="route-24501665_0" edges="-24501665"/>
  <route id="route-249079170#0_0" edges="-249079170#0"/>
  <route id="route-249079170#1_0" edges="-249079170#1"/>
  <route id="route-249079170#2_0" edges="-249079170#2"/>
  <route id="route-25007082_0" edges="-25007082"/>
  <route id="route-25007083_0" edges="-25007083"/>
  <route id="route-250656499#0_0" edges="-250656499#0"/>
  <route id="route-250656499#1_0" edges="-250656499#1"/>
  <route id="route-250665456_0" edges="-250665456"/>
  <route id="route-25122282_0" edges="-25122282"/>
  <route id="route-25172141#0_0" edges="-25172141#0"/>
  <route id="route-25172141#1_0" edges="-25172141#1"/>
  <route id="route-25172141#2_0" edges="-25172141#2"/>
  <route id="route-25172185_0" edges="-25172185"/>
  <route id="route-25172201_0" edges="-25172201"/>
  <route id="route-25172214_0" edges="-25172214"/>
  <route id="route-25172217_0" edges="-25172217"/>
  <route id="route-25172245#0_0" edges="-25172245#0"/>
  <route id="route-25172245#1_0" edges="-25172245#1"/>
  <route id="route-25172247_0" edges="-25172247"/>
  <route id="route-25172410_0" edges="-25172410"/>
  <route id="route-25172668#0_0" edges="-25172668#0"/>
  <route id="route-25172668#1_0" edges="-25172668#1"/>
  <route id="route-25172924#0_0" edges="-25172924#0"/>
  <route id="route-25172924#1_0" edges="-25172924#1"/>
  <route id="route-25172924#2_0" edges="-25172924#2"/>
  <route id="route-25172924#3_0" edges="-25172924#3"/>
  <route id="route-25172924#4_0" edges="-25172924#4"/>
  <route id="route-254466686#0_0" edges="-254466686#0"/>
  <route id="route-254466686#1_0" edges="-254466686#1"/>
  <route id="route-254466686#2_0" edges="-254466686#2"/>
  <route id="route-254466686#3_0" edges="-254466686#3"/>
  <route id="route-254971064#0_0" edges="-254971064#0"/>
  <route id="route-254971064#1_0" edges="-254971064#1"/>
  <route id="route-254971064#2_0" edges="-254971064#2"/>
  <route id="route-25519382#0_0" edges="-25519382#0"/>
  <route id="route-25519382#1_0" edges="-25519382#1"/>
  <route id="route-25519382#2_0" edges="-25519382#2"/>
  <route id="route-25519382#3_0" edges="-25519382#3"/>
  <route id="route-25519382#4_0" edges="-25519382#4"/>
  <route id="route-25519382#5_0" edges="-25519382#5"/>
  <route id="route-25519382#6_0" edges="-25519382#6"/>
  <route id="route-25519382#7_0" edges="-25519382#7"/>
  <route id="route-255330034#0_0" edges="-255330034#0"/>
  <route id="route-255330034#1_0" edges="-255330034#1"/>
  <route id="route-255330034#2_0" edges="-255330034#2"/>
  <route id="route-255330034#3_0" edges="-255330034#3"/>
  <route id="route-255330034#4_0" edges="-255330034#4"/>
  <route id="route-255330034#5_0" edges="-255330034#5"/>
  <route id="route-255330034#6_0" edges="-255330034#6"/>
  <route id="route-255330034#7_0" edges="-255330034#7"/>
  <route id="route-255330036#0_0" edges="-255330036#0"/>
  <route id="route-255330036#1_0" edges="-255330036#1"/>
  <route id="route-255330037#0_0" edges="-255330037#0"/>
  <route id="route-255330037#1_0" edges="-255330037#1"/>
  <route id="route-255330037#2_0" edges="-255330037#2"/>
  <route id="route-255330038#0_0" edges="-255330038#0"/>
  <route id="route-255330038#1_0" edges="-255330038#1"/>
  <route id="route-255330038#2_0" edges="-255330038#2"/>
  <route id="route-255330044#0_0" edges="-255330044#0"/>
  <route id="route-255330044#1_0" edges="-255330044#1"/>
  <route id="route-255330044#2_0" edges="-255330044#2"/>
  <route id="route-255330044#3_0" edges="-255330044#3"/>
  <route id="route-255330044#4_0" edges="-255330044#4"/>
  <route id="route-255330044#5_0" edges="-255330044#5"/>
  <route id="route-255330044#6_0" edges="-255330044#6"/>
  <route id="route-255330044#7_0" edges="-255330044#7"/>
  <route id="route-255330044#8_0" edges="-255330044#8"/>
  <route id="route-255330059_0" edges="-255330059"/>
  <route id="route-255330071#0_0" edges="-255330071#0"/>
  <route id="route-255330071#1_0" edges="-255330071#1"/>
  <route id="route-255330071#2_0" edges="-255330071#2"/>
  <route id="route-255330072#0_0" edges="-255330072#0"/>
  <route id="route-255330072#1_0" edges="-255330072#1"/>
  <route id="route-255330072#2_0" edges="-255330072#2"/>
  <route id="route-256400251#0_0" edges="-256400251#0"/>
  <route id="route-256400251#1_0" edges="-256400251#1"/>
  <route id="route-25738999#0_0" edges="-25738999#0"/>
  <route id="route-25738999#1_0" edges="-25738999#1"/>
  <route id="route-25738999#2_0" edges="-25738999#2"/>
  <route id="route-25759170#0_0" edges="-25759170#0"/>
  <route id="route-25759170#1_0" edges="-25759170#1"/>
  <route id="route-25759170#2_0" edges="-25759170#2"/>
  <route id="route-25759250#0_0" edges="-25759250#0"/>
  <route id="route-25759250#1_0" edges="-25759250#1"/>
  <route id="route-25759250#2_0" edges="-25759250#2"/>
  <route id="route-25759250#3_0" edges="-25759250#3"/>
  <route id="route-25759250#4_0" edges="-25759250#4"/>
  <route id="route-25965702#0_0" edges="-25965702#0"/>
  <route id="route-25965702#1_0" edges="-25965702#1"/>
  <route id="route-25965702#2_0" edges="-25965702#2"/>
  <route id="route-25965702#3_0" edges="-25965702#3"/>
  <route id="route-25965702#4_0" edges="-25965702#4"/>
  <route id="route-25965702#5_0" edges="-25965702#5"/>
  <route id="route-25965702#6_0" edges="-25965702#6"/>
  <route id="route-26767593#0_0" edges="-26767593#0"/>
  <route id="route-26767593#1_0" edges="-26767593#1"/>
  <route id="route-26769815#0_0" edges="-26769815#0"/>
  <route id="route-26769815#1_0" edges="-26769815#1"/>
  <route id="route-26769815#2_0" edges="-26769815#2"/>
  <route id="route-26769815#3_0" edges="-26769815#3"/>
  <route id="route-27397692_0" edges="-27397692"/>
  <route id="route-27397715#0_0" edges="-27397715#0"/>
  <route id="route-27397715#1_0" edges="-27397715#1"/>
  <route id="route-27397715#2_0" edges="-27397715#2"/>
  <route id="route-27397927#0_0" edges="-27397927#0"/>
  <route id="route-27397927#1_0" edges="-27397927#1"/>