<?xml version='1.0' encoding='UTF-8'?>
<routes xmlns:xsi="http://www.w3.org/2001/XMLSchema-instance" xsi:noNamespaceSchemaLocation="http://sumo.dlr.de/xsd/routes_file.xsd">
  <route id="route11197898_0" edges="11197898 123741311 123741303 90077193#0 90077193#1 340686922 236348366 340686911#0 340686911#1 340686911#2 340686911#3 236348361 236348360#0 236348360#1"/>
  <route id="route123741311_0" edges="123741311 123741303 90077193#0 90077193#1 340686922 236348366 340686911#0 340686911#1 340686911#2 340686911#3 236348361 236348360#0 236348360#1"/>
  <route id="route123741303_0" edges="123741303 90077193#0 90077193#1 340686922 236348366 340686911#0 340686911#1 340686911#2 340686911#3 236348361 236348360#0 236348360#1"/>
  <route id="route90077193#0_0" edges="90077193#0 90077193#1 340686922 236348366 340686911#0 340686911#1 340686911#2 340686911#3 236348361 236348360#0 236348360#1"/>
  <route id="route90077193#1_0" edges="90077193#1 340686922 236348366 340686911#0 340686911#1 340686911#2 340686911#3 236348361 236348360#0 236348360#1"/>
  <route id="route340686922_0" edges="340686922 236348366 340686911#0 340686911#1 340686911#2 340686911#3 236348361 236348360#0 236348360#1"/>
  <route id="route236348366_0" edges="236348366 340686911#0 340686911#1 340686911#2 340686911#3 236348361 236348360#0 236348360#1"/>
  <route id="route340686911#0_0" edges="340686911#0 340686911#1 340686911#2 340686911#3 236348361 236348360#0 236348360#1"/>
  <route id="route340686911#1_0" edges="340686911#1 340686911#2 340686911#3 236348361 236348360#0 236348360#1"/>
  <route id="route340686911#2_0" edges="340686911#2 340686911#3 236348361 236348360#0 236348360#1"/>
  <route id="route340686911#3_0" edges="340686911#3 236348361 236348360#0 236348360#1"/>
  <route id="route236348361_0" edges="236348361 236348360#0 236348360#1"/>
  <route id="route236348360#0_0" edges="236348360#0 236348360#1"/>
  <route id="route236348360#1_0" edges="236348360#1"/>
</routes>
