<?xml version='1.0' encoding='UTF-8'?>
<configuration xmlns:xsi="http://www.w3.org/2001/XMLSchema-instance" xsi:noNamespaceSchemaLocation="http://sumo.dlr.de/xsd/sumoConfiguration.xsd">
  <input>
    <net-file value="bay_bridge_20200229-1852341582973554.1580129.net.xml"/>
    <route-files value="bay_bridge_20200229-1852341582973554.1580129.rou.xml"/>
    <additional-files value="bay_bridge_20200229-1852341582973554.1580129.add.xml"/>
    <gui-settings-file value="bay_bridge_20200229-1852341582973554.1580129.gui.cfg"/>
  </input>
  <time>
    <begin value="0"/>
  </time>
</configuration>
