<?xml version='1.0' encoding='UTF-8'?>
<additional xmlns:xsi="http://www.w3.org/2001/XMLSchema-instance" xsi:noNamespaceSchemaLocation="http://sumo.dlr.de/xsd/additional_file.xsd">
  <vType id="human" accel="2.6" decel="7.5" sigma="0.5" tau="1.0" minGap="2.5" maxSpeed="30" speedFactor="1.0" speedDev="0.1" impatience="0.5" carFollowModel="IDM" laneChangeModel="LC2013" lcStrategic="1.0" lcCooperative="1.0" lcSpeedGain="1.0" lcKeepRight="1.0"/>
  <tlLogic id="center0" type="actuated" programID="10">
    <param key="id" value="center0"/>
    <param key="type" value="actuated"/>
    <param key="programID" value="10"/>
    <phase duration="20" minDur="16" maxDur="24" state="GrGr"/>
    <phase duration="3" minDur="3" maxDur="6" state="yryr"/>
    <phase duration="20" minDur="16" maxDur="24" state="rGrG"/>
    <phase duration="3" minDur="3" maxDur="6" state="ryry"/>
    <param key="max-gap" value="3.0"/>
    <param key="detector-gap" value="0.6"/>
    <param key="show-detectors" value="True"/>
  </tlLogic>
  <tlLogic id="center1" type="actuated" programID="10">
    <param key="id" value="center1"/>
    <param key="type" value="actuated"/>
    <param key="programID" value="10"/>
    <phase duration="20" minDur="16" maxDur="24" state="GrGr"/>
    <phase duration="3" minDur="3" maxDur="6" state="yryr"/>
    <phase duration="20" minDur="16" maxDur="24" state="rGrG"/>
    <phase duration="3" minDur="3" maxDur="6" state="ryry"/>
    <param key="max-gap" value="3.0"/>
    <param key="detector-gap" value="0.6"/>
    <param key="show-detectors" value="True"/>
  </tlLogic>
  <tlLogic id="center2" type="actuated" programID="10">
    <param key="id" value="center2"/>
    <param key="type" value="actuated"/>
    <param key="programID" value="10"/>
    <phase duration="20" minDur="16" maxDur="24" state="GrGr"/>
    <phase duration="3" minDur="3" maxDur="6" state="yryr"/>
    <phase duration="20" minDur="16" maxDur="24" state="rGrG"/>
    <phase duration="3" minDur="3" maxDur="6" state="ryry"/>
    <param key="max-gap" value="3.0"/>
    <param key="detector-gap" value="0.6"/>
    <param key="show-detectors" value="True"/>
  </tlLogic>
  <tlLogic id="center3" type="actuated" programID="10">
    <param key="id" value="center3"/>
    <param key="type" value="actuated"/>
    <param key="programID" value="10"/>
    <phase duration="20" minDur="16" maxDur="24" state="GrGr"/>
    <phase duration="3" minDur="3" maxDur="6" state="yryr"/>
    <phase duration="20" minDur="16" maxDur="24" state="rGrG"/>
    <phase duration="3" minDur="3" maxDur="6" state="ryry"/>
    <param key="max-gap" value="3.0"/>
    <param key="detector-gap" value="0.6"/>
    <param key="show-detectors" value="True"/>
  </tlLogic>
</additional>
