<?xml version='1.0' encoding='UTF-8'?>
<configuration xmlns:xsi="http://www.w3.org/2001/XMLSchema-instance" xsi:noNamespaceSchemaLocation="http://sumo.dlr.de/xsd/sumoConfiguration.xsd">
  <input>
    <net-file value="grid_0_1x3_i300_multiagent_20200330-1717551585559875.7356906.net.xml"/>
    <route-files value="grid_0_1x3_i300_multiagent_20200330-1717551585559875.7356906.rou.xml"/>
    <additional-files value="grid_0_1x3_i300_multiagent_20200330-1717551585559875.7356906.add.xml"/>
    <gui-settings-file value="grid_0_1x3_i300_multiagent_20200330-1717551585559875.7356906.gui.cfg"/>
  </input>
  <time>
    <begin value="0"/>
  </time>
</configuration>
