<?xml version='1.0' encoding='UTF-8'?>
<routes xmlns:xsi="http://www.w3.org/2001/XMLSchema-instance" xsi:noNamespaceSchemaLocation="http://sumo.dlr.de/xsd/routes_file.xsd">
  <route id="routebot0_0_0" edges="bot0_0 bot0_1 bot0_2 bot0_3"/>
  <route id="routetop0_3_0" edges="top0_3 top0_2 top0_1 top0_0"/>
  <route id="routebot1_0_0" edges="bot1_0 bot1_1 bot1_2 bot1_3"/>
  <route id="routetop1_3_0" edges="top1_3 top1_2 top1_1 top1_0"/>
  <route id="routebot2_0_0" edges="bot2_0 bot2_1 bot2_2 bot2_3"/>
  <route id="routetop2_3_0" edges="top2_3 top2_2 top2_1 top2_0"/>
  <route id="routebot3_0_0" edges="bot3_0 bot3_1 bot3_2 bot3_3"/>
  <route id="routetop3_3_0" edges="top3_3 top3_2 top3_1 top3_0"/>
  <route id="routeleft4_0_0" edges="left4_0 left3_0 left2_0 left1_0 left0_0"/>
  <route id="routeright0_0_0" edges="right0_0 right1_0 right2_0 right3_0 right4_0"/>
  <route id="routeleft4_1_0" edges="left4_1 left3_1 left2_1 left1_1 left0_1"/>
  <route id="routeright0_1_0" edges="right0_1 right1_1 right2_1 right3_1 right4_1"/>
  <route id="routeleft4_2_0" edges="left4_2 left3_2 left2_2 left1_2 left0_2"/>
  <route id="routeright0_2_0" edges="right0_2 right1_2 right2_2 right3_2 right4_2"/>
  <flow id="flow_00" route="routeleft4_0_0" type="human" departLane="free" departSpeed="30" begin="1" end="86400" vehsPerHour="600.0"/>
  <flow id="flow_10" route="routeleft4_1_0" type="human" departLane="free" departSpeed="30" begin="1" end="86400" vehsPerHour="600.0"/>
  <flow id="flow_20" route="routeleft4_2_0" type="human" departLane="free" departSpeed="30" begin="1" end="86400" vehsPerHour="600.0"/>
  <flow id="flow_30" route="routeright0_0_0" type="human" departLane="free" departSpeed="30" begin="1" end="86400" vehsPerHour="600.0"/>
  <flow id="flow_40" route="routeright0_1_0" type="human" departLane="free" departSpeed="30" begin="1" end="86400" vehsPerHour="600.0"/>
  <flow id="flow_50" route="routeright0_2_0" type="human" departLane="free" departSpeed="30" begin="1" end="86400" vehsPerHour="600.0"/>
  <flow id="flow_60" route="routebot0_0_0" type="human" departLane="free" departSpeed="30" begin="1" end="86400" vehsPerHour="600.0"/>
  <flow id="flow_70" route="routebot1_0_0" type="human" departLane="free" departSpeed="30" begin="1" end="86400" vehsPerHour="600.0"/>
  <flow id="flow_80" route="routebot2_0_0" type="human" departLane="free" departSpeed="30" begin="1" end="86400" vehsPerHour="600.0"/>
  <flow id="flow_90" route="routebot3_0_0" type="human" departLane="free" departSpeed="30" begin="1" end="86400" vehsPerHour="600.0"/>
  <flow id="flow_100" route="routetop0_3_0" type="human" departLane="free" departSpeed="30" begin="1" end="86400" vehsPerHour="600.0"/>
  <flow id="flow_110" route="routetop1_3_0" type="human" departLane="free" departSpeed="30" begin="1" end="86400" vehsPerHour="600.0"/>
  <flow id="flow_120" route="routetop2_3_0" type="human" departLane="free" departSpeed="30" begin="1" end="86400" vehsPerHour="600.0"/>
  <flow id="flow_130" route="routetop3_3_0" type="human" departLane="free" departSpeed="30" begin="1" end="86400" vehsPerHour="600.0"/>
</routes>
