<?xml version='1.0' encoding='UTF-8'?>
<configuration xmlns:xsi="http://www.w3.org/2001/XMLSchema-instance" xsi:noNamespaceSchemaLocation="http://sumo.dlr.de/xsd/sumoConfiguration.xsd">
  <input>
    <net-file value="grid_0_1x3_i300_multiagent_20200407-2055261586264126.4295645.net.xml"/>
    <route-files value="grid_0_1x3_i300_multiagent_20200407-2055261586264126.4295645.rou.xml"/>
    <additional-files value="grid_0_1x3_i300_multiagent_20200407-2055261586264126.4295645.add.xml"/>
    <gui-settings-file value="grid_0_1x3_i300_multiagent_20200407-2055261586264126.4295645.gui.cfg"/>
  </input>
  <time>
    <begin value="0"/>
  </time>
</configuration>
