<?xml version="1.0" encoding="UTF-8"?>

<!-- generated on Thu May  7 20:02:46 2020 by Eclipse SUMO netconvert Version v1_1_0+0000-2147d155b1
<configuration xmlns:xsi="http://www.w3.org/2001/XMLSchema-instance" xsi:noNamespaceSchemaLocation="http://sumo.dlr.de/xsd/netconvertConfiguration.xsd">

    <input>
        <node-files value="/home/ryc/flow/flow/core/kernel/network/debug/net/grid_20200507-2002391588852959.9309797.nod.xml"/>
        <edge-files value="/home/ryc/flow/flow/core/kernel/network/debug/net/grid_20200507-2002391588852959.9309797.edg.xml"/>
        <connection-files value="/home/ryc/flow/flow/core/kernel/network/debug/net/grid_20200507-2002391588852959.9309797.con.xml"/>
        <type-files value="/home/ryc/flow/flow/core/kernel/network/debug/net/grid_20200507-2002391588852959.9309797.typ.xml"/>
    </input>

    <output>
        <output-file value="/home/ryc/flow/flow/core/kernel/network/debug/cfg/grid_20200507-2002391588852959.9309797.net.xml"/>
    </output>

    <junctions>
        <no-internal-links value="false"/>
        <no-turnarounds value="true"/>
    </junctions>

</configuration>
-->

<net version="1.1" junctionCornerDetail="5" limitTurnSpeed="5.50" xmlns:xsi="http://www.w3.org/2001/XMLSchema-instance" xsi:noNamespaceSchemaLocation="http://sumo.dlr.de/xsd/net_file.xsd">

    <location netOffset="300.00,300.00" convBoundary="0.00,0.00,1200.00,600.00" origBoundary="-300.00,-300.00,900.00,300.00" projParameter="!"/>

    <type id="horizontal" numLanes="1" speed="35.00"/>
    <type id="vertical" numLanes="1" speed="35.00"/>

    <edge id=":center0_0" function="internal">
        <lane id=":center0_0_0" index="0" speed="35.00" length="18.80" shape="298.40,309.40 298.40,290.60"/>
    </edge>
    <edge id=":center0_1" function="internal">
        <lane id=":center0_1_0" index="0" speed="35.00" length="18.80" shape="309.40,301.60 290.60,301.60"/>
    </edge>
    <edge id=":center0_2" function="internal">
        <lane id=":center0_2_0" index="0" speed="35.00" length="18.80" shape="301.60,290.60 301.60,309.40"/>
    </edge>
    <edge id=":center0_3" function="internal">
        <lane id=":center0_3_0" index="0" speed="35.00" length="18.80" shape="290.60,298.40 309.40,298.40"/>
    </edge>
    <edge id=":center1_0" function="internal">
        <lane id=":center1_0_0" index="0" speed="35.00" length="18.80" shape="598.40,309.40 598.40,290.60"/>
    </edge>
    <edge id=":center1_1" function="internal">
        <lane id=":center1_1_0" index="0" speed="35.00" length="18.80" shape="609.40,301.60 590.60,301.60"/>
    </edge>
    <edge id=":center1_2" function="internal">
        <lane id=":center1_2_0" index="0" speed="35.00" length="18.80" shape="601.60,290.60 601.60,309.40"/>
    </edge>
    <edge id=":center1_3" function="internal">
        <lane id=":center1_3_0" index="0" speed="35.00" length="18.80" shape="590.60,298.40 609.40,298.40"/>
    </edge>
    <edge id=":center2_0" function="internal">
        <lane id=":center2_0_0" index="0" speed="35.00" length="18.80" shape="898.40,309.40 898.40,290.60"/>
    </edge>
    <edge id=":center2_1" function="internal">
        <lane id=":center2_1_0" index="0" speed="35.00" length="18.80" shape="909.40,301.60 890.60,301.60"/>
    </edge>
    <edge id=":center2_2" function="internal">
        <lane id=":center2_2_0" index="0" speed="35.00" length="18.80" shape="901.60,290.60 901.60,309.40"/>
    </edge>
    <edge id=":center2_3" function="internal">
        <lane id=":center2_3_0" index="0" speed="35.00" length="18.80" shape="890.60,298.40 909.40,298.40"/>
    </edge>

    <edge id="bot0_0" from="left_row_short0" to="center0" priority="78" type="horizontal" length="300.00">
        <lane id="bot0_0_0" index="0" speed="35.00" length="300.00" shape="0.00,298.40 290.60,298.40"/>
    </edge>
    <edge id="bot0_1" from="center0" to="center1" priority="78" type="horizontal" length="300.00">
        <lane id="bot0_1_0" index="0" speed="35.00" length="300.00" shape="309.40,298.40 590.60,298.40"/>
    </edge>
    <edge id="bot0_2" from="center1" to="center2" priority="78" type="horizontal" length="300.00">
        <lane id="bot0_2_0" index="0" speed="35.00" length="300.00" shape="609.40,298.40 890.60,298.40"/>
    </edge>
    <edge id="bot0_3" from="center2" to="right_row_long0" priority="78" type="horizontal" length="100.00">
        <lane id="bot0_3_0" index="0" speed="35.00" length="100.00" shape="909.40,298.40 1000.00,298.40"/>
    </edge>
    <edge id="left0_0" from="center0" to="bot_col_long0" priority="78" type="vertical" length="100.00">
        <lane id="left0_0_0" index="0" speed="35.00" length="100.00" shape="298.40,290.60 298.40,200.00"/>
    </edge>
    <edge id="left0_1" from="center1" to="bot_col_long1" priority="78" type="vertical" length="100.00">
        <lane id="left0_1_0" index="0" speed="35.00" length="100.00" shape="598.40,290.60 598.40,200.00"/>
    </edge>
    <edge id="left0_2" from="center2" to="bot_col_long2" priority="78" type="vertical" length="100.00">
        <lane id="left0_2_0" index="0" speed="35.00" length="100.00" shape="898.40,290.60 898.40,200.00"/>
    </edge>
    <edge id="left1_0" from="top_col_short0" to="center0" priority="78" type="vertical" length="300.00">
        <lane id="left1_0_0" index="0" speed="35.00" length="300.00" shape="298.40,600.00 298.40,309.40"/>
    </edge>
    <edge id="left1_1" from="top_col_short1" to="center1" priority="78" type="vertical" length="300.00">
        <lane id="left1_1_0" index="0" speed="35.00" length="300.00" shape="598.40,600.00 598.40,309.40"/>
    </edge>
    <edge id="left1_2" from="top_col_short2" to="center2" priority="78" type="vertical" length="300.00">
        <lane id="left1_2_0" index="0" speed="35.00" length="300.00" shape="898.40,600.00 898.40,309.40"/>
    </edge>
    <edge id="right0_0" from="bot_col_short0" to="center0" priority="78" type="vertical" length="300.00">
        <lane id="right0_0_0" index="0" speed="35.00" length="300.00" shape="301.60,0.00 301.60,290.60"/>
    </edge>
    <edge id="right0_1" from="bot_col_short1" to="center1" priority="78" type="vertical" length="300.00">
        <lane id="right0_1_0" index="0" speed="35.00" length="300.00" shape="601.60,0.00 601.60,290.60"/>
    </edge>
    <edge id="right0_2" from="bot_col_short2" to="center2" priority="78" type="vertical" length="300.00">
        <lane id="right0_2_0" index="0" speed="35.00" length="300.00" shape="901.60,0.00 901.60,290.60"/>
    </edge>
    <edge id="right1_0" from="center0" to="top_col_long0" priority="78" type="vertical" length="100.00">
        <lane id="right1_0_0" index="0" speed="35.00" length="100.00" shape="301.60,309.40 301.60,400.00"/>
    </edge>
    <edge id="right1_1" from="center1" to="top_col_long1" priority="78" type="vertical" length="100.00">
        <lane id="right1_1_0" index="0" speed="35.00" length="100.00" shape="601.60,309.40 601.60,400.00"/>
    </edge>
    <edge id="right1_2" from="center2" to="top_col_long2" priority="78" type="vertical" length="100.00">
        <lane id="right1_2_0" index="0" speed="35.00" length="100.00" shape="901.60,309.40 901.60,400.00"/>
    </edge>
    <edge id="top0_0" from="center0" to="left_row_long0" priority="78" type="horizontal" length="100.00">
        <lane id="top0_0_0" index="0" speed="35.00" length="100.00" shape="290.60,301.60 200.00,301.60"/>
    </edge>
    <edge id="top0_1" from="center1" to="center0" priority="78" type="horizontal" length="300.00">
        <lane id="top0_1_0" index="0" speed="35.00" length="300.00" shape="590.60,301.60 309.40,301.60"/>
    </edge>
    <edge id="top0_2" from="center2" to="center1" priority="78" type="horizontal" length="300.00">
        <lane id="top0_2_0" index="0" speed="35.00" length="300.00" shape="890.60,301.60 609.40,301.60"/>
    </edge>
    <edge id="top0_3" from="right_row_short0" to="center2" priority="78" type="horizontal" length="300.00">
        <lane id="top0_3_0" index="0" speed="35.00" length="300.00" shape="1200.00,301.60 909.40,301.60"/>
    </edge>

    <tlLogic id="center0" type="static" programID="0" offset="0">
        <phase duration="38" state="GrGr"/>
        <phase duration="7"  state="yryr"/>
        <phase duration="38" state="rGrG"/>
        <phase duration="7"  state="ryry"/>
    </tlLogic>
    <tlLogic id="center1" type="static" programID="0" offset="0">
        <phase duration="38" state="GrGr"/>
        <phase duration="7"  state="yryr"/>
        <phase duration="38" state="rGrG"/>
        <phase duration="7"  state="ryry"/>
    </tlLogic>
    <tlLogic id="center2" type="static" programID="0" offset="0">
        <phase duration="38" state="GrGr"/>
        <phase duration="7"  state="yryr"/>
        <phase duration="38" state="rGrG"/>
        <phase duration="7"  state="ryry"/>
    </tlLogic>

    <junction id="bot_col_long0" type="dead_end" x="300.00" y="200.00" incLanes="left0_0_0" intLanes="" shape="296.80,200.00 300.00,200.00"/>
    <junction id="bot_col_long1" type="dead_end" x="600.00" y="200.00" incLanes="left0_1_0" intLanes="" shape="596.80,200.00 600.00,200.00"/>
    <junction id="bot_col_long2" type="dead_end" x="900.00" y="200.00" incLanes="left0_2_0" intLanes="" shape="896.80,200.00 900.00,200.00"/>
    <junction id="bot_col_short0" type="dead_end" x="300.00" y="0.00" incLanes="" intLanes="" shape="300.00,0.00 303.20,0.00"/>
    <junction id="bot_col_short1" type="dead_end" x="600.00" y="0.00" incLanes="" intLanes="" shape="600.00,0.00 603.20,0.00"/>
    <junction id="bot_col_short2" type="dead_end" x="900.00" y="0.00" incLanes="" intLanes="" shape="900.00,0.00 903.20,0.00"/>
    <junction id="center0" type="traffic_light" x="300.00" y="300.00" incLanes="left1_0_0 top0_1_0 right0_0_0 bot0_0_0" intLanes=":center0_0_0 :center0_1_0 :center0_2_0 :center0_3_0" shape="296.80,309.40 303.20,309.40 303.89,305.96 304.75,304.75 305.96,303.89 307.51,303.37 309.40,303.20 309.40,296.80 305.96,296.11 304.75,295.25 303.89,294.04 303.37,292.49 303.20,290.60 296.80,290.60 296.11,294.04 295.25,295.25 294.04,296.11 292.49,296.63 290.60,296.80 290.60,303.20 294.04,303.89 295.25,304.75 296.11,305.96 296.63,307.51" radius="6.20">
        <request index="0" response="0000" foes="1010" cont="0"/>
        <request index="1" response="0101" foes="0101" cont="0"/>
        <request index="2" response="0000" foes="1010" cont="0"/>
        <request index="3" response="0101" foes="0101" cont="0"/>
    </junction>
    <junction id="center1" type="traffic_light" x="600.00" y="300.00" incLanes="left1_1_0 top0_2_0 right0_1_0 bot0_1_0" intLanes=":center1_0_0 :center1_1_0 :center1_2_0 :center1_3_0" shape="596.80,309.40 603.20,309.40 603.89,305.96 604.75,304.75 605.96,303.89 607.51,303.37 609.40,303.20 609.40,296.80 605.96,296.11 604.75,295.25 603.89,294.04 603.37,292.49 603.20,290.60 596.80,290.60 596.11,294.04 595.25,295.25 594.04,296.11 592.49,296.63 590.60,296.80 590.60,303.20 594.04,303.89 595.25,304.75 596.11,305.96 596.63,307.51" radius="6.20">
        <request index="0" response="0000" foes="1010" cont="0"/>
        <request index="1" response="0101" foes="0101" cont="0"/>
        <request index="2" response="0000" foes="1010" cont="0"/>
        <request index="3" response="0101" foes="0101" cont="0"/>
    </junction>
    <junction id="center2" type="traffic_light" x="900.00" y="300.00" incLanes="left1_2_0 top0_3_0 right0_2_0 bot0_2_0" intLanes=":center2_0_0 :center2_1_0 :center2_2_0 :center2_3_0" shape="896.80,309.40 903.20,309.40 903.89,305.96 904.75,304.75 905.96,303.89 907.51,303.37 909.40,303.20 909.40,296.80 905.96,296.11 904.75,295.25 903.89,294.04 903.37,292.49 903.20,290.60 896.80,290.60 896.11,294.04 895.25,295.25 894.04,296.11 892.49,296.63 890.60,296.80 890.60,303.20 894.04,303.89 895.25,304.75 896.11,305.96 896.63,307.51" radius="6.20">
        <request index="0" response="0000" foes="1010" cont="0"/>
        <request index="1" response="0101" foes="0101" cont="0"/>
        <request index="2" response="0000" foes="1010" cont="0"/>
        <request index="3" response="0101" foes="0101" cont="0"/>
    </junction>
    <junction id="left_row_long0" type="dead_end" x="200.00" y="300.00" incLanes="top0_0_0" intLanes="" shape="200.00,303.20 200.00,300.00"/>
    <junction id="left_row_short0" type="dead_end" x="0.00" y="300.00" incLanes="" intLanes="" shape="0.00,300.00 0.00,296.80"/>
    <junction id="right_row_long0" type="dead_end" x="1000.00" y="300.00" incLanes="bot0_3_0" intLanes="" shape="1000.00,296.80 1000.00,300.00"/>
    <junction id="right_row_short0" type="dead_end" x="1200.00" y="300.00" incLanes="" intLanes="" shape="1200.00,300.00 1200.00,303.20"/>
    <junction id="top_col_long0" type="dead_end" x="300.00" y="400.00" incLanes="right1_0_0" intLanes="" shape="303.20,400.00 300.00,400.00"/>
    <junction id="top_col_long1" type="dead_end" x="600.00" y="400.00" incLanes="right1_1_0" intLanes="" shape="603.20,400.00 600.00,400.00"/>
    <junction id="top_col_long2" type="dead_end" x="900.00" y="400.00" incLanes="right1_2_0" intLanes="" shape="903.20,400.00 900.00,400.00"/>
    <junction id="top_col_short0" type="dead_end" x="300.00" y="600.00" incLanes="" intLanes="" shape="300.00,600.00 296.80,600.00"/>
    <junction id="top_col_short1" type="dead_end" x="600.00" y="600.00" incLanes="" intLanes="" shape="600.00,600.00 596.80,600.00"/>
    <junction id="top_col_short2" type="dead_end" x="900.00" y="600.00" incLanes="" intLanes="" shape="900.00,600.00 896.80,600.00"/>

    <connection from="bot0_0" to="bot0_1" fromLane="0" toLane="0" via=":center0_3_0" tl="center0" linkIndex="3" dir="s" state="o"/>
    <connection from="bot0_1" to="bot0_2" fromLane="0" toLane="0" via=":center1_3_0" tl="center1" linkIndex="3" dir="s" state="o"/>
    <connection from="bot0_2" to="bot0_3" fromLane="0" toLane="0" via=":center2_3_0" tl="center2" linkIndex="3" dir="s" state="o"/>
    <connection from="left1_0" to="left0_0" fromLane="0" toLane="0" via=":center0_0_0" tl="center0" linkIndex="0" dir="s" state="O"/>
    <connection from="left1_1" to="left0_1" fromLane="0" toLane="0" via=":center1_0_0" tl="center1" linkIndex="0" dir="s" state="O"/>
    <connection from="left1_2" to="left0_2" fromLane="0" toLane="0" via=":center2_0_0" tl="center2" linkIndex="0" dir="s" state="O"/>
    <connection from="right0_0" to="right1_0" fromLane="0" toLane="0" via=":center0_2_0" tl="center0" linkIndex="2" dir="s" state="O"/>
    <connection from="right0_1" to="right1_1" fromLane="0" toLane="0" via=":center1_2_0" tl="center1" linkIndex="2" dir="s" state="O"/>
    <connection from="right0_2" to="right1_2" fromLane="0" toLane="0" via=":center2_2_0" tl="center2" linkIndex="2" dir="s" state="O"/>
    <connection from="top0_1" to="top0_0" fromLane="0" toLane="0" via=":center0_1_0" tl="center0" linkIndex="1" dir="s" state="o"/>
    <connection from="top0_2" to="top0_1" fromLane="0" toLane="0" via=":center1_1_0" tl="center1" linkIndex="1" dir="s" state="o"/>
    <connection from="top0_3" to="top0_2" fromLane="0" toLane="0" via=":center2_1_0" tl="center2" linkIndex="1" dir="s" state="o"/>

    <connection from=":center0_0" to="left0_0" fromLane="0" toLane="0" dir="s" state="M"/>
    <connection from=":center0_1" to="top0_0" fromLane="0" toLane="0" dir="s" state="M"/>
    <connection from=":center0_2" to="right1_0" fromLane="0" toLane="0" dir="s" state="M"/>
    <connection from=":center0_3" to="bot0_1" fromLane="0" toLane="0" dir="s" state="M"/>
    <connection from=":center1_0" to="left0_1" fromLane="0" toLane="0" dir="s" state="M"/>
    <connection from=":center1_1" to="top0_1" fromLane="0" toLane="0" dir="s" state="M"/>
    <connection from=":center1_2" to="right1_1" fromLane="0" toLane="0" dir="s" state="M"/>
    <connection from=":center1_3" to="bot0_2" fromLane="0" toLane="0" dir="s" state="M"/>
    <connection from=":center2_0" to="left0_2" fromLane="0" toLane="0" dir="s" state="M"/>
    <connection from=":center2_1" to="top0_2" fromLane="0" toLane="0" dir="s" state="M"/>
    <connection from=":center2_2" to="right1_2" fromLane="0" toLane="0" dir="s" state="M"/>
    <connection from=":center2_3" to="bot0_3" fromLane="0" toLane="0" dir="s" state="M"/>

</net>
