<?xml version='1.0' encoding='UTF-8'?>
<routes xmlns:xsi="http://www.w3.org/2001/XMLSchema-instance" xsi:noNamespaceSchemaLocation="http://sumo.dlr.de/xsd/routes_file.xsd">
  <route id="routebot0_0_0" edges="bot0_0 bot0_1 bot0_2 bot0_3"/>
  <route id="routetop0_3_0" edges="top0_3 top0_2 top0_1 top0_0"/>
  <route id="routeleft1_0_0" edges="left1_0 left0_0"/>
  <route id="routeright0_0_0" edges="right0_0 right1_0"/>
  <route id="routeleft1_1_0" edges="left1_1 left0_1"/>
  <route id="routeright0_1_0" edges="right0_1 right1_1"/>
  <route id="routeleft1_2_0" edges="left1_2 left0_2"/>
  <route id="routeright0_2_0" edges="right0_2 right1_2"/>
  <flow id="flow_00" route="routeleft1_0_0" type="human" departLane="free" departSpeed="30" begin="1" end="86400" vehsPerHour="300.0"/>
  <flow id="flow_10" route="routeleft1_1_0" type="human" departLane="free" departSpeed="30" begin="1" end="86400" vehsPerHour="300.0"/>
  <flow id="flow_20" route="routeleft1_2_0" type="human" departLane="free" departSpeed="30" begin="1" end="86400" vehsPerHour="300.0"/>
  <flow id="flow_30" route="routeright0_0_0" type="human" departLane="free" departSpeed="30" begin="1" end="86400" vehsPerHour="300.0"/>
  <flow id="flow_40" route="routebot0_0_0" type="human" departLane="free" departSpeed="30" begin="1" end="86400" vehsPerHour="300.0"/>
  <flow id="flow_50" route="routetop0_3_0" type="human" departLane="free" departSpeed="30" begin="1" end="86400" vehsPerHour="300.0"/>
</routes>
