<?xml version='1.0' encoding='UTF-8'?>
<configuration xmlns:xsi="http://www.w3.org/2001/XMLSchema-instance" xsi:noNamespaceSchemaLocation="http://sumo.dlr.de/xsd/sumoConfiguration.xsd">
  <input>
    <net-file value="grid-intersection_20200410-1341101586497270.5597394.net.xml"/>
    <route-files value="grid-intersection_20200410-1341101586497270.5597394.rou.xml"/>
    <additional-files value="grid-intersection_20200410-1341101586497270.5597394.add.xml"/>
    <gui-settings-file value="grid-intersection_20200410-1341101586497270.5597394.gui.cfg"/>
  </input>
  <time>
    <begin value="0"/>
  </time>
</configuration>
