<?xml version='1.0' encoding='UTF-8'?>
<configuration xmlns:xsi="http://www.w3.org/2001/XMLSchema-instance" xsi:noNamespaceSchemaLocation="http://sumo.dlr.de/xsd/sumoConfiguration.xsd">
  <input>
    <net-file value="grid_20200502-1134441588390484.5321496.net.xml"/>
    <route-files value="grid_20200502-1134441588390484.5321496.rou.xml"/>
    <additional-files value="grid_20200502-1134441588390484.5321496.add.xml"/>
    <gui-settings-file value="grid_20200502-1134441588390484.5321496.gui.cfg"/>
  </input>
  <time>
    <begin value="0"/>
  </time>
</configuration>
