<?xml version='1.0' encoding='UTF-8'?>
<configuration xmlns:xsi="http://www.w3.org/2001/XMLSchema-instance" xsi:noNamespaceSchemaLocation="http://sumo.dlr.de/xsd/sumoConfiguration.xsd">
  <input>
    <net-file value="grid_0_3x3_i300_multiagent_20200326-1648001585212480.5509832.net.xml"/>
    <route-files value="grid_0_3x3_i300_multiagent_20200326-1648001585212480.5509832.rou.xml"/>
    <additional-files value="grid_0_3x3_i300_multiagent_20200326-1648001585212480.5509832.add.xml"/>
    <gui-settings-file value="grid_0_3x3_i300_multiagent_20200326-1648001585212480.5509832.gui.cfg"/>
  </input>
  <time>
    <begin value="0"/>
  </time>
</configuration>
