<?xml version='1.0' encoding='UTF-8'?>
<configuration xmlns:xsi="http://www.w3.org/2001/XMLSchema-instance" xsi:noNamespaceSchemaLocation="http://sumo.dlr.de/xsd/sumoConfiguration.xsd">
  <input>
    <net-file value="grid_20200520-2003171589976197.5272024.net.xml"/>
    <route-files value="grid_20200520-2003171589976197.5272024.rou.xml"/>
    <additional-files value="grid_20200520-2003171589976197.5272024.add.xml"/>
    <gui-settings-file value="grid_20200520-2003171589976197.5272024.gui.cfg"/>
  </input>
  <time>
    <begin value="0"/>
  </time>
</configuration>
