<?xml version='1.0' encoding='UTF-8'?>
<additional xmlns:xsi="http://www.w3.org/2001/XMLSchema-instance" xsi:noNamespaceSchemaLocation="http://sumo.dlr.de/xsd/additional_file.xsd">
  <vType id="human" accel="2.6" decel="7.5" sigma="0.5" tau="1.0" minGap="2.5" maxSpeed="30" speedFactor="1.0" speedDev="0.1" impatience="0.5" carFollowModel="IDM" laneChangeModel="LC2013" lcStrategic="1.0" lcCooperative="1.0" lcSpeedGain="1.0" lcKeepRight="1.0"/>
  <tlLogic id="center0" type="static" programID="10">
    <param key="id" value="center0"/>
    <param key="type" value="static"/>
    <param key="programID" value="10"/>
    <phase duration="5000" minDur="8" maxDur="45" state="GrGr"/>
    <phase duration="3" minDur="3" maxDur="6" state="yryr"/>
    <phase duration="5000" minDur="8" maxDur="45" state="rGrG"/>
    <phase duration="3" minDur="3" maxDur="6" state="ryry"/>
  </tlLogic>
  <tlLogic id="center1" type="static" programID="10">
    <param key="id" value="center1"/>
    <param key="type" value="static"/>
    <param key="programID" value="10"/>
    <phase duration="5000" minDur="8" maxDur="45" state="GrGr"/>
    <phase duration="3" minDur="3" maxDur="6" state="yryr"/>
    <phase duration="5000" minDur="8" maxDur="45" state="rGrG"/>
    <phase duration="3" minDur="3" maxDur="6" state="ryry"/>
  </tlLogic>
  <tlLogic id="center2" type="static" programID="10">
    <param key="id" value="center2"/>
    <param key="type" value="static"/>
    <param key="programID" value="10"/>
    <phase duration="5000" minDur="8" maxDur="45" state="GrGr"/>
    <phase duration="3" minDur="3" maxDur="6" state="yryr"/>
    <phase duration="5000" minDur="8" maxDur="45" state="rGrG"/>
    <phase duration="3" minDur="3" maxDur="6" state="ryry"/>
  </tlLogic>
  <tlLogic id="center3" type="static" programID="10">
    <param key="id" value="center3"/>
    <param key="type" value="static"/>
    <param key="programID" value="10"/>
    <phase duration="5000" minDur="8" maxDur="45" state="GrGr"/>
    <phase duration="3" minDur="3" maxDur="6" state="yryr"/>
    <phase duration="5000" minDur="8" maxDur="45" state="rGrG"/>
    <phase duration="3" minDur="3" maxDur="6" state="ryry"/>
  </tlLogic>
  <tlLogic id="center4" type="static" programID="10">
    <param key="id" value="center4"/>
    <param key="type" value="static"/>
    <param key="programID" value="10"/>
    <phase duration="5000" minDur="8" maxDur="45" state="GrGr"/>
    <phase duration="3" minDur="3" maxDur="6" state="yryr"/>
    <phase duration="5000" minDur="8" maxDur="45" state="rGrG"/>
    <phase duration="3" minDur="3" maxDur="6" state="ryry"/>
  </tlLogic>
  <tlLogic id="center5" type="static" programID="10">
    <param key="id" value="center5"/>
    <param key="type" value="static"/>
    <param key="programID" value="10"/>
    <phase duration="5000" minDur="8" maxDur="45" state="GrGr"/>
    <phase duration="3" minDur="3" maxDur="6" state="yryr"/>
    <phase duration="5000" minDur="8" maxDur="45" state="rGrG"/>
    <phase duration="3" minDur="3" maxDur="6" state="ryry"/>
  </tlLogic>
  <tlLogic id="center6" type="static" programID="10">
    <param key="id" value="center6"/>
    <param key="type" value="static"/>
    <param key="programID" value="10"/>
    <phase duration="5000" minDur="8" maxDur="45" state="GrGr"/>
    <phase duration="3" minDur="3" maxDur="6" state="yryr"/>
    <phase duration="5000" minDur="8" maxDur="45" state="rGrG"/>
    <phase duration="3" minDur="3" maxDur="6" state="ryry"/>
  </tlLogic>
  <tlLogic id="center7" type="static" programID="10">
    <param key="id" value="center7"/>
    <param key="type" value="static"/>
    <param key="programID" value="10"/>
    <phase duration="5000" minDur="8" maxDur="45" state="GrGr"/>
    <phase duration="3" minDur="3" maxDur="6" state="yryr"/>
    <phase duration="5000" minDur="8" maxDur="45" state="rGrG"/>
    <phase duration="3" minDur="3" maxDur="6" state="ryry"/>
  </tlLogic>
  <tlLogic id="center8" type="static" programID="10">
    <param key="id" value="center8"/>
    <param key="type" value="static"/>
    <param key="programID" value="10"/>
    <phase duration="5000" minDur="8" maxDur="45" state="GrGr"/>
    <phase duration="3" minDur="3" maxDur="6" state="yryr"/>
    <phase duration="5000" minDur="8" maxDur="45" state="rGrG"/>
    <phase duration="3" minDur="3" maxDur="6" state="ryry"/>
  </tlLogic>
</additional>
