<?xml version='1.0' encoding='UTF-8'?>
<configuration xmlns:xsi="http://www.w3.org/2001/XMLSchema-instance" xsi:noNamespaceSchemaLocation="http://sumo.dlr.de/xsd/sumoConfiguration.xsd">
  <input>
    <net-file value="grid_20200504-2153571588600437.0163932.net.xml"/>
    <route-files value="grid_20200504-2153571588600437.0163932.rou.xml"/>
    <additional-files value="grid_20200504-2153571588600437.0163932.add.xml"/>
    <gui-settings-file value="grid_20200504-2153571588600437.0163932.gui.cfg"/>
  </input>
  <time>
    <begin value="0"/>
  </time>
</configuration>
