<?xml version='1.0' encoding='UTF-8'?>
<configuration xmlns:xsi="http://www.w3.org/2001/XMLSchema-instance" xsi:noNamespaceSchemaLocation="http://sumo.dlr.de/xsd/sumoConfiguration.xsd">
  <input>
    <net-file value="grid_20200521-1000541590026454.3967514.net.xml"/>
    <route-files value="grid_20200521-1000541590026454.3967514.rou.xml"/>
    <additional-files value="grid_20200521-1000541590026454.3967514.add.xml"/>
    <gui-settings-file value="grid_20200521-1000541590026454.3967514.gui.cfg"/>
  </input>
  <time>
    <begin value="0"/>
  </time>
</configuration>
