<?xml version="1.0" encoding="UTF-8"?>

<!-- generated on Thu Mar 19 00:14:18 2020 by Eclipse SUMO netconvert Version v1_1_0+0000-2147d155b1
<configuration xmlns:xsi="http://www.w3.org/2001/XMLSchema-instance" xsi:noNamespaceSchemaLocation="http://sumo.dlr.de/xsd/netconvertConfiguration.xsd">

    <input>
        <node-files value="/home/ryc/flow/flow/core/kernel/network/debug/net/lord_of_numrings3_20200319-0014181584548058.9619794.nod.xml"/>
        <edge-files value="/home/ryc/flow/flow/core/kernel/network/debug/net/lord_of_numrings3_20200319-0014181584548058.9619794.edg.xml"/>
        <type-files value="/home/ryc/flow/flow/core/kernel/network/debug/net/lord_of_numrings3_20200319-0014181584548058.9619794.typ.xml"/>
    </input>

    <output>
        <output-file value="/home/ryc/flow/flow/core/kernel/network/debug/cfg/lord_of_numrings3_20200319-0014181584548058.9619794.net.xml"/>
    </output>

    <junctions>
        <no-internal-links value="false"/>
        <no-turnarounds value="true"/>
    </junctions>

</configuration>
-->

<net version="1.1" junctionCornerDetail="5" limitTurnSpeed="5.50" xmlns:xsi="http://www.w3.org/2001/XMLSchema-instance" xsi:noNamespaceSchemaLocation="http://sumo.dlr.de/xsd/net_file.xsd">

    <location netOffset="36.61,36.61" convBoundary="0.00,0.00,219.64,219.64" origBoundary="-36.61,-36.61,183.03,183.03" projParameter="!"/>

    <type id="edgeType" numLanes="1" speed="30.00"/>

    <edge id=":bottom_0_0" function="internal">
        <lane id=":bottom_0_0_0" index="0" speed="30.00" length="0.10" shape="36.58,-1.60 36.64,-1.60"/>
    </edge>
    <edge id=":bottom_1_0" function="internal">
        <lane id=":bottom_1_0_0" index="0" speed="30.00" length="0.10" shape="36.58,144.83 36.64,144.83"/>
    </edge>
    <edge id=":bottom_2_0" function="internal">
        <lane id=":bottom_2_0_0" index="0" speed="30.00" length="0.10" shape="183.00,-1.60 183.06,-1.60"/>
    </edge>
    <edge id=":left_0_0" function="internal">
        <lane id=":left_0_0_0" index="0" speed="30.00" length="0.10" shape="-1.60,36.64 -1.60,36.58"/>
    </edge>
    <edge id=":left_1_0" function="internal">
        <lane id=":left_1_0_0" index="0" speed="30.00" length="0.10" shape="-1.60,183.06 -1.60,183.00"/>
    </edge>
    <edge id=":left_2_0" function="internal">
        <lane id=":left_2_0_0" index="0" speed="30.00" length="0.10" shape="144.83,36.64 144.83,36.58"/>
    </edge>
    <edge id=":right_0_0" function="internal">
        <lane id=":right_0_0_0" index="0" speed="30.00" length="0.10" shape="74.82,36.58 74.82,36.64"/>
    </edge>
    <edge id=":right_1_0" function="internal">
        <lane id=":right_1_0_0" index="0" speed="30.00" length="0.10" shape="74.82,183.00 74.82,183.06"/>
    </edge>
    <edge id=":right_2_0" function="internal">
        <lane id=":right_2_0_0" index="0" speed="30.00" length="0.10" shape="221.24,36.58 221.24,36.64"/>
    </edge>
    <edge id=":top_0_0" function="internal">
        <lane id=":top_0_0_0" index="0" speed="30.00" length="0.10" shape="36.64,74.82 36.58,74.82"/>
    </edge>
    <edge id=":top_1_0" function="internal">
        <lane id=":top_1_0_0" index="0" speed="30.00" length="0.10" shape="36.64,221.24 36.58,221.24"/>
    </edge>
    <edge id=":top_2_0" function="internal">
        <lane id=":top_2_0_0" index="0" speed="30.00" length="0.10" shape="183.06,74.82 183.00,74.82"/>
    </edge>

    <edge id="bottom_0" from="bottom_0" to="right_0" priority="-1" type="edgeType" length="57.50" shape="36.61,0.00 38.08,0.03 39.56,0.12 41.02,0.27 42.48,0.48 43.93,0.74 45.37,1.07 46.79,1.45 48.20,1.89 49.59,2.38 50.96,2.93 52.30,3.54 53.62,4.20 54.91,4.91 56.17,5.67 57.40,6.48 58.60,7.35 59.76,8.26 60.88,9.21 61.97,10.21 63.01,11.25 64.01,12.34 64.96,13.46 65.87,14.62 66.74,15.82 67.55,17.05 68.31,18.31 69.02,19.60 69.68,20.92 70.29,22.26 70.84,23.63 71.33,25.02 71.77,26.43 72.15,27.85 72.48,29.29 72.74,30.74 72.95,32.20 73.10,33.66 73.19,35.14 73.22,36.61">
        <lane id="bottom_0_0" index="0" speed="30.00" length="57.50" shape="36.64,-1.60 38.15,-1.57 39.69,-1.47 41.22,-1.32 42.74,-1.10 44.25,-0.83 45.76,-0.48 47.24,-0.09 48.70,0.37 50.15,0.88 51.59,1.46 52.99,2.10 54.36,2.78 55.71,3.52 57.02,4.32 58.31,5.16 59.56,6.07 60.77,7.02 61.94,8.01 63.08,9.05 64.17,10.14 65.21,11.28 66.20,12.45 67.15,13.66 68.06,14.91 68.90,16.20 69.70,17.51 70.44,18.86 71.12,20.23 71.76,21.63 72.34,23.07 72.85,24.52 73.31,25.98 73.70,27.46 74.05,28.97 74.32,30.48 74.54,32.00 74.69,33.53 74.79,35.07 74.82,36.58"/>
    </edge>
    <edge id="bottom_1" from="bottom_1" to="right_1" priority="-1" type="edgeType" length="57.50" shape="36.61,146.43 38.08,146.46 39.56,146.55 41.02,146.69 42.48,146.90 43.93,147.17 45.37,147.49 46.79,147.87 48.20,148.31 49.59,148.81 50.96,149.36 52.30,149.96 53.62,150.62 54.91,151.33 56.17,152.09 57.40,152.91 58.60,153.77 59.76,154.68 60.88,155.63 61.97,156.63 63.01,157.67 64.01,158.76 64.96,159.88 65.87,161.04 66.74,162.24 67.55,163.47 68.31,164.73 69.02,166.02 69.68,167.34 70.29,168.68 70.84,170.05 71.33,171.44 71.77,172.85 72.15,174.27 72.48,175.71 72.74,177.16 72.95,178.62 73.10,180.09 73.19,181.56 73.22,183.03">
        <lane id="bottom_1_0" index="0" speed="30.00" length="57.50" shape="36.64,144.83 38.15,144.86 39.68,144.95 41.21,145.10 42.74,145.32 44.25,145.60 45.75,145.94 47.24,146.33 48.71,146.79 50.16,147.31 51.59,147.89 52.98,148.51 54.36,149.20 55.71,149.94 57.03,150.74 58.31,151.59 59.56,152.49 60.77,153.44 61.94,154.43 63.08,155.47 64.17,156.56 65.21,157.70 66.20,158.87 67.15,160.08 68.06,161.33 68.90,162.62 69.70,163.93 70.44,165.28 71.12,166.65 71.76,168.05 72.34,169.49 72.85,170.94 73.31,172.40 73.70,173.88 74.05,175.39 74.32,176.90 74.54,178.42 74.69,179.96 74.79,181.49 74.82,183.00"/>
    </edge>
    <edge id="bottom_2" from="bottom_2" to="right_2" priority="-1" type="edgeType" length="57.50" shape="183.03,0.00 184.51,0.03 185.98,0.12 187.44,0.27 188.90,0.48 190.35,0.74 191.79,1.07 193.22,1.45 194.62,1.89 196.01,2.38 197.38,2.93 198.73,3.54 200.04,4.20 201.34,4.91 202.60,5.67 203.83,6.48 205.02,7.35 206.18,8.26 207.31,9.21 208.39,10.21 209.43,11.25 210.43,12.34 211.39,13.46 212.30,14.62 213.16,15.82 213.97,17.05 214.73,18.31 215.45,19.60 216.10,20.92 216.71,22.26 217.26,23.63 217.75,25.02 218.19,26.43 218.57,27.85 218.90,29.29 219.16,30.74 219.37,32.20 219.52,33.66 219.61,35.14 219.64,36.61">
        <lane id="bottom_2_0" index="0" speed="30.00" length="57.50" shape="183.06,-1.60 184.58,-1.57 186.11,-1.47 187.64,-1.32 189.16,-1.10 190.67,-0.83 192.17,-0.48 193.67,-0.09 195.13,0.37 196.57,0.88 198.01,1.46 199.42,2.10 200.78,2.78 202.14,3.52 203.45,4.32 204.74,5.17 205.99,6.07 207.19,7.02 208.37,8.01 209.50,9.06 210.59,10.14 211.63,11.28 212.63,12.45 213.58,13.66 214.48,14.91 215.32,16.20 216.11,17.51 216.87,18.86 217.55,20.24 218.18,21.63 218.76,23.07 219.27,24.52 219.73,25.98 220.12,27.46 220.47,28.97 220.74,30.48 220.96,32.00 221.11,33.53 221.21,35.07 221.24,36.58"/>
    </edge>
    <edge id="left_0" from="left_0" to="bottom_0" priority="-1" type="edgeType" length="57.50" shape="0.00,36.61 0.03,35.14 0.12,33.66 0.27,32.20 0.48,30.74 0.74,29.29 1.07,27.85 1.45,26.43 1.89,25.02 2.38,23.63 2.93,22.26 3.54,20.92 4.20,19.60 4.91,18.31 5.67,17.05 6.48,15.82 7.35,14.62 8.26,13.46 9.21,12.34 10.21,11.25 11.25,10.21 12.34,9.21 13.46,8.26 14.62,7.35 15.82,6.48 17.05,5.67 18.31,4.91 19.60,4.20 20.92,3.54 22.26,2.93 23.63,2.38 25.02,1.89 26.43,1.45 27.85,1.07 29.29,0.74 30.74,0.48 32.20,0.27 33.66,0.12 35.14,0.03 36.61,0.00">
        <lane id="left_0_0" index="0" speed="30.00" length="57.50" shape="-1.60,36.58 -1.57,35.07 -1.47,33.53 -1.32,32.00 -1.10,30.48 -0.83,28.97 -0.48,27.46 -0.09,25.98 0.37,24.52 0.88,23.07 1.46,21.63 2.10,20.23 2.78,18.86 3.52,17.51 4.32,16.20 5.16,14.91 6.07,13.66 7.02,12.45 8.01,11.28 9.05,10.14 10.14,9.05 11.28,8.01 12.45,7.02 13.66,6.07 14.91,5.16 16.20,4.32 17.51,3.52 18.86,2.78 20.23,2.10 21.63,1.46 23.07,0.88 24.52,0.37 25.98,-0.09 27.46,-0.48 28.97,-0.83 30.48,-1.10 32.00,-1.32 33.53,-1.47 35.07,-1.57 36.58,-1.60"/>
    </edge>
    <edge id="left_1" from="left_1" to="bottom_1" priority="-1" type="edgeType" length="57.50" shape="0.00,183.03 0.03,181.56 0.12,180.09 0.27,178.62 0.48,177.16 0.74,175.71 1.07,174.27 1.45,172.85 1.89,171.44 2.38,170.05 2.93,168.68 3.54,167.34 4.20,166.02 4.91,164.73 5.67,163.47 6.48,162.24 7.35,161.04 8.26,159.88 9.21,158.76 10.21,157.67 11.25,156.63 12.34,155.63 13.46,154.68 14.62,153.77 15.82,152.91 17.05,152.09 18.31,151.33 19.60,150.62 20.92,149.96 22.26,149.36 23.63,148.81 25.02,148.31 26.43,147.87 27.85,147.49 29.29,147.17 30.74,146.90 32.20,146.69 33.66,146.55 35.14,146.46 36.61,146.43">
        <lane id="left_1_0" index="0" speed="30.00" length="57.50" shape="-1.60,183.00 -1.57,181.49 -1.47,179.96 -1.32,178.42 -1.10,176.90 -0.83,175.39 -0.48,173.88 -0.09,172.40 0.37,170.94 0.88,169.49 1.46,168.05 2.10,166.65 2.78,165.28 3.52,163.93 4.32,162.62 5.16,161.33 6.07,160.08 7.02,158.87 8.01,157.70 9.05,156.56 10.14,155.47 11.28,154.43 12.45,153.44 13.66,152.49 14.91,151.59 16.19,150.74 17.51,149.94 18.86,149.20 20.24,148.51 21.63,147.89 23.06,147.31 24.51,146.79 25.98,146.33 27.47,145.94 28.97,145.60 30.48,145.32 32.01,145.10 33.54,144.95 35.07,144.86 36.58,144.83"/>
    </edge>
    <edge id="left_2" from="left_2" to="bottom_2" priority="-1" type="edgeType" length="57.50" shape="146.43,36.61 146.46,35.14 146.55,33.66 146.69,32.20 146.90,30.74 147.17,29.29 147.49,27.85 147.87,26.43 148.31,25.02 148.81,23.63 149.36,22.26 149.96,20.92 150.62,19.60 151.33,18.31 152.09,17.05 152.91,15.82 153.77,14.62 154.68,13.46 155.63,12.34 156.63,11.25 157.67,10.21 158.76,9.21 159.88,8.26 161.04,7.35 162.24,6.48 163.47,5.67 164.73,4.91 166.02,4.20 167.34,3.54 168.68,2.93 170.05,2.38 171.44,1.89 172.85,1.45 174.27,1.07 175.71,0.74 177.16,0.48 178.62,0.27 180.09,0.12 181.56,0.03 183.03,0.00">
        <lane id="left_2_0" index="0" speed="30.00" length="57.50" shape="144.83,36.58 144.86,35.07 144.95,33.54 145.10,32.01 145.32,30.48 145.60,28.97 145.94,27.47 146.33,25.98 146.79,24.51 147.31,23.06 147.89,21.63 148.51,20.24 149.20,18.86 149.94,17.51 150.74,16.19 151.59,14.91 152.49,13.66 153.44,12.45 154.43,11.28 155.47,10.14 156.56,9.05 157.70,8.01 158.87,7.02 160.08,6.07 161.33,5.16 162.62,4.32 163.93,3.52 165.28,2.78 166.65,2.10 168.05,1.46 169.49,0.88 170.94,0.37 172.40,-0.09 173.88,-0.48 175.39,-0.83 176.90,-1.10 178.42,-1.32 179.96,-1.47 181.49,-1.57 183.00,-1.60"/>
    </edge>
    <edge id="right_0" from="right_0" to="top_0" priority="-1" type="edgeType" length="57.50" shape="73.22,36.61 73.19,38.08 73.10,39.56 72.95,41.02 72.74,42.48 72.48,43.93 72.15,45.37 71.77,46.79 71.33,48.20 70.84,49.59 70.29,50.96 69.68,52.30 69.02,53.62 68.31,54.91 67.55,56.17 66.74,57.40 65.87,58.60 64.96,59.76 64.01,60.88 63.01,61.97 61.97,63.01 60.88,64.01 59.76,64.96 58.60,65.87 57.40,66.74 56.17,67.55 54.91,68.31 53.62,69.02 52.30,69.68 50.96,70.29 49.59,70.84 48.20,71.33 46.79,71.77 45.37,72.15 43.93,72.48 42.48,72.74 41.02,72.95 39.56,73.10 38.08,73.19 36.61,73.22">
        <lane id="right_0_0" index="0" speed="30.00" length="57.50" shape="74.82,36.64 74.79,38.15 74.69,39.69 74.54,41.22 74.32,42.74 74.05,44.25 73.70,45.76 73.31,47.24 72.85,48.70 72.34,50.15 71.76,51.59 71.12,52.99 70.44,54.36 69.70,55.71 68.90,57.02 68.06,58.31 67.15,59.56 66.20,60.77 65.21,61.94 64.17,63.08 63.08,64.17 61.94,65.21 60.77,66.20 59.56,67.15 58.31,68.06 57.02,68.90 55.71,69.70 54.36,70.44 52.99,71.12 51.59,71.76 50.15,72.34 48.70,72.85 47.24,73.31 45.76,73.70 44.25,74.05 42.74,74.32 41.22,74.54 39.69,74.69 38.15,74.79 36.64,74.82"/>
    </edge>
    <edge id="right_1" from="right_1" to="top_1" priority="-1" type="edgeType" length="57.50" shape="73.22,183.03 73.19,184.51 73.10,185.98 72.95,187.44 72.74,188.90 72.48,190.35 72.15,191.79 71.77,193.22 71.33,194.62 70.84,196.01 70.29,197.38 69.68,198.73 69.02,200.04 68.31,201.34 67.55,202.60 66.74,203.83 65.87,205.02 64.96,206.18 64.01,207.31 63.01,208.39 61.97,209.43 60.88,210.43 59.76,211.39 58.60,212.30 57.40,213.16 56.17,213.97 54.91,214.73 53.62,215.45 52.30,216.10 50.96,216.71 49.59,217.26 48.20,217.75 46.79,218.19 45.37,218.57 43.93,218.90 42.48,219.16 41.02,219.37 39.56,219.52 38.08,219.61 36.61,219.64">
        <lane id="right_1_0" index="0" speed="30.00" length="57.50" shape="74.82,183.06 74.79,184.58 74.69,186.11 74.54,187.64 74.32,189.16 74.05,190.67 73.70,192.17 73.31,193.67 72.85,195.13 72.34,196.57 71.76,198.01 71.12,199.42 70.44,200.78 69.70,202.14 68.90,203.45 68.05,204.74 67.15,205.99 66.20,207.19 65.21,208.37 64.16,209.50 63.08,210.59 61.94,211.63 60.77,212.63 59.56,213.58 58.31,214.48 57.02,215.32 55.71,216.11 54.36,216.87 52.98,217.55 51.59,218.18 50.15,218.76 48.70,219.27 47.24,219.73 45.76,220.12 44.25,220.47 42.74,220.74 41.22,220.96 39.69,221.11 38.15,221.21 36.64,221.24"/>
    </edge>
    <edge id="right_2" from="right_2" to="top_2" priority="-1" type="edgeType" length="57.50" shape="219.64,36.61 219.61,38.08 219.52,39.56 219.37,41.02 219.16,42.48 218.90,43.93 218.57,45.37 218.19,46.79 217.75,48.20 217.26,49.59 216.71,50.96 216.10,52.30 215.45,53.62 214.73,54.91 213.97,56.17 213.16,57.40 212.30,58.60 211.39,59.76 210.43,60.88 209.43,61.97 208.39,63.01 207.31,64.01 206.18,64.96 205.02,65.87 203.83,66.74 202.60,67.55 201.34,68.31 200.04,69.02 198.73,69.68 197.38,70.29 196.01,70.84 194.62,71.33 193.22,71.77 191.79,72.15 190.35,72.48 188.90,72.74 187.44,72.95 185.98,73.10 184.51,73.19 183.03,73.22">
        <lane id="right_2_0" index="0" speed="30.00" length="57.50" shape="221.24,36.64 221.21,38.15 221.11,39.69 220.96,41.22 220.74,42.74 220.47,44.25 220.12,45.76 219.73,47.24 219.27,48.70 218.76,50.15 218.18,51.59 217.55,52.98 216.87,54.36 216.11,55.71 215.32,57.02 214.48,58.31 213.58,59.56 212.63,60.77 211.63,61.94 210.59,63.08 209.50,64.16 208.37,65.21 207.19,66.20 205.99,67.15 204.74,68.05 203.45,68.90 202.14,69.70 200.78,70.44 199.42,71.12 198.01,71.76 196.57,72.34 195.13,72.85 193.67,73.31 192.17,73.70 190.67,74.05 189.16,74.32 187.64,74.54 186.11,74.69 184.58,74.79 183.06,74.82"/>
    </edge>
    <edge id="top_0" from="top_0" to="left_0" priority="-1" type="edgeType" length="57.50" shape="36.61,73.22 35.14,73.19 33.66,73.10 32.20,72.95 30.74,72.74 29.29,72.48 27.85,72.15 26.43,71.77 25.02,71.33 23.63,70.84 22.26,70.29 20.92,69.68 19.60,69.02 18.31,68.31 17.05,67.55 15.82,66.74 14.62,65.87 13.46,64.96 12.34,64.01 11.25,63.01 10.21,61.97 9.21,60.88 8.26,59.76 7.35,58.60 6.48,57.40 5.67,56.17 4.91,54.91 4.20,53.62 3.54,52.30 2.93,50.96 2.38,49.59 1.89,48.20 1.45,46.79 1.07,45.37 0.74,43.93 0.48,42.48 0.27,41.02 0.12,39.56 0.03,38.08 0.00,36.61">
        <lane id="top_0_0" index="0" speed="30.00" length="57.50" shape="36.58,74.82 35.07,74.79 33.53,74.69 32.00,74.54 30.48,74.32 28.97,74.05 27.46,73.70 25.98,73.31 24.52,72.85 23.07,72.34 21.63,71.76 20.23,71.12 18.86,70.44 17.51,69.70 16.20,68.90 14.91,68.06 13.66,67.15 12.45,66.20 11.28,65.21 10.14,64.17 9.05,63.08 8.01,61.94 7.02,60.77 6.07,59.56 5.16,58.31 4.32,57.02 3.52,55.71 2.78,54.36 2.10,52.99 1.46,51.59 0.88,50.15 0.37,48.70 -0.09,47.24 -0.48,45.76 -0.83,44.25 -1.10,42.74 -1.32,41.22 -1.47,39.69 -1.57,38.15 -1.60,36.64"/>
    </edge>
    <edge id="top_1" from="top_1" to="left_1" priority="-1" type="edgeType" length="57.50" shape="36.61,219.64 35.14,219.61 33.66,219.52 32.20,219.37 30.74,219.16 29.29,218.90 27.85,218.57 26.43,218.19 25.02,217.75 23.63,217.26 22.26,216.71 20.92,216.10 19.60,215.45 18.31,214.73 17.05,213.97 15.82,213.16 14.62,212.30 13.46,211.39 12.34,210.43 11.25,209.43 10.21,208.39 9.21,207.31 8.26,206.18 7.35,205.02 6.48,203.83 5.67,202.60 4.91,201.34 4.20,200.04 3.54,198.73 2.93,197.38 2.38,196.01 1.89,194.62 1.45,193.22 1.07,191.79 0.74,190.35 0.48,188.90 0.27,187.44 0.12,185.98 0.03,184.51 0.00,183.03">
        <lane id="top_1_0" index="0" speed="30.00" length="57.50" shape="36.58,221.24 35.07,221.21 33.53,221.11 32.00,220.96 30.48,220.74 28.97,220.47 27.46,220.12 25.98,219.73 24.52,219.27 23.07,218.76 21.63,218.18 20.24,217.55 18.86,216.87 17.51,216.11 16.20,215.32 14.91,214.48 13.66,213.58 12.45,212.63 11.28,211.63 10.14,210.59 9.06,209.50 8.01,208.37 7.02,207.19 6.07,205.99 5.17,204.74 4.32,203.45 3.52,202.14 2.78,200.78 2.10,199.42 1.46,198.01 0.88,196.57 0.37,195.13 -0.09,193.67 -0.48,192.17 -0.83,190.67 -1.10,189.16 -1.32,187.64 -1.47,186.11 -1.57,184.58 -1.60,183.06"/>
    </edge>
    <edge id="top_2" from="top_2" to="left_2" priority="-1" type="edgeType" length="57.50" shape="183.03,73.22 181.56,73.19 180.09,73.10 178.62,72.95 177.16,72.74 175.71,72.48 174.27,72.15 172.85,71.77 171.44,71.33 170.05,70.84 168.68,70.29 167.34,69.68 166.02,69.02 164.73,68.31 163.47,67.55 162.24,66.74 161.04,65.87 159.88,64.96 158.76,64.01 157.67,63.01 156.63,61.97 155.63,60.88 154.68,59.76 153.77,58.60 152.91,57.40 152.09,56.17 151.33,54.91 150.62,53.62 149.96,52.30 149.36,50.96 148.81,49.59 148.31,48.20 147.87,46.79 147.49,45.37 147.17,43.93 146.90,42.48 146.69,41.02 146.55,39.56 146.46,38.08 146.43,36.61">
        <lane id="top_2_0" index="0" speed="30.00" length="57.50" shape="183.00,74.82 181.49,74.79 179.96,74.69 178.42,74.54 176.90,74.32 175.39,74.05 173.88,73.70 172.40,73.31 170.94,72.85 169.49,72.34 168.05,71.76 166.65,71.12 165.28,70.44 163.93,69.70 162.62,68.90 161.33,68.06 160.08,67.15 158.87,66.20 157.70,65.21 156.56,64.17 155.47,63.08 154.43,61.94 153.44,60.77 152.49,59.56 151.59,58.31 150.74,57.03 149.94,55.71 149.20,54.36 148.51,52.98 147.89,51.59 147.31,50.16 146.79,48.71 146.33,47.24 145.94,45.75 145.60,44.25 145.32,42.74 145.10,41.21 144.95,39.68 144.86,38.15 144.83,36.64"/>
    </edge>

    <junction id="bottom_0" type="priority" x="36.61" y="0.00" incLanes="left_0_0" intLanes=":bottom_0_0_0" shape="36.69,0.00 36.75,-3.20 36.47,-3.20 36.53,0.00">
        <request index="0" response="0" foes="0" cont="0"/>
    </junction>
    <junction id="bottom_1" type="priority" x="36.61" y="146.43" incLanes="left_1_0" intLanes=":bottom_1_0_0" shape="36.69,146.43 36.75,143.23 36.47,143.23 36.53,146.43">
        <request index="0" response="0" foes="0" cont="0"/>
    </junction>
    <junction id="bottom_2" type="priority" x="183.03" y="0.00" incLanes="left_2_0" intLanes=":bottom_2_0_0" shape="183.11,0.00 183.17,-3.20 182.89,-3.20 182.95,0.00">
        <request index="0" response="0" foes="0" cont="0"/>
    </junction>
    <junction id="left_0" type="priority" x="0.00" y="36.61" incLanes="top_0_0" intLanes=":left_0_0_0" shape="-3.20,36.75 0.00,36.69 0.00,36.53 -3.20,36.47">
        <request index="0" response="0" foes="0" cont="0"/>
    </junction>
    <junction id="left_1" type="priority" x="0.00" y="183.03" incLanes="top_1_0" intLanes=":left_1_0_0" shape="-3.20,183.17 0.00,183.11 0.00,182.95 -3.20,182.89">
        <request index="0" response="0" foes="0" cont="0"/>
    </junction>
    <junction id="left_2" type="priority" x="146.43" y="36.61" incLanes="top_2_0" intLanes=":left_2_0_0" shape="143.23,36.75 146.43,36.69 146.43,36.53 143.23,36.47">
        <request index="0" response="0" foes="0" cont="0"/>
    </junction>
    <junction id="right_0" type="priority" x="73.22" y="36.61" incLanes="bottom_0_0" intLanes=":right_0_0_0" shape="76.42,36.47 73.22,36.53 73.22,36.69 76.42,36.75">
        <request index="0" response="0" foes="0" cont="0"/>
    </junction>
    <junction id="right_1" type="priority" x="73.22" y="183.03" incLanes="bottom_1_0" intLanes=":right_1_0_0" shape="76.42,182.89 73.22,182.95 73.22,183.11 76.42,183.17">
        <request index="0" response="0" foes="0" cont="0"/>
    </junction>
    <junction id="right_2" type="priority" x="219.64" y="36.61" incLanes="bottom_2_0" intLanes=":right_2_0_0" shape="222.84,36.47 219.64,36.53 219.64,36.69 222.84,36.75">
        <request index="0" response="0" foes="0" cont="0"/>
    </junction>
    <junction id="top_0" type="priority" x="36.61" y="73.22" incLanes="right_0_0" intLanes=":top_0_0_0" shape="36.75,76.42 36.69,73.22 36.53,73.22 36.47,76.42">
        <request index="0" response="0" foes="0" cont="0"/>
    </junction>
    <junction id="top_1" type="priority" x="36.61" y="219.64" incLanes="right_1_0" intLanes=":top_1_0_0" shape="36.75,222.84 36.69,219.64 36.53,219.64 36.47,222.84">
        <request index="0" response="0" foes="0" cont="0"/>
    </junction>
    <junction id="top_2" type="priority" x="183.03" y="73.22" incLanes="right_2_0" intLanes=":top_2_0_0" shape="183.17,76.42 183.11,73.22 182.95,73.22 182.89,76.42">
        <request index="0" response="0" foes="0" cont="0"/>
    </junction>

    <connection from="bottom_0" to="right_0" fromLane="0" toLane="0" via=":right_0_0_0" dir="s" state="M"/>
    <connection from="bottom_1" to="right_1" fromLane="0" toLane="0" via=":right_1_0_0" dir="s" state="M"/>
    <connection from="bottom_2" to="right_2" fromLane="0" toLane="0" via=":right_2_0_0" dir="s" state="M"/>
    <connection from="left_0" to="bottom_0" fromLane="0" toLane="0" via=":bottom_0_0_0" dir="s" state="M"/>
    <connection from="left_1" to="bottom_1" fromLane="0" toLane="0" via=":bottom_1_0_0" dir="s" state="M"/>
    <connection from="left_2" to="bottom_2" fromLane="0" toLane="0" via=":bottom_2_0_0" dir="s" state="M"/>
    <connection from="right_0" to="top_0" fromLane="0" toLane="0" via=":top_0_0_0" dir="s" state="M"/>
    <connection from="right_1" to="top_1" fromLane="0" toLane="0" via=":top_1_0_0" dir="s" state="M"/>
    <connection from="right_2" to="top_2" fromLane="0" toLane="0" via=":top_2_0_0" dir="s" state="M"/>
    <connection from="top_0" to="left_0" fromLane="0" toLane="0" via=":left_0_0_0" dir="s" state="M"/>
    <connection from="top_1" to="left_1" fromLane="0" toLane="0" via=":left_1_0_0" dir="s" state="M"/>
    <connection from="top_2" to="left_2" fromLane="0" toLane="0" via=":left_2_0_0" dir="s" state="M"/>

    <connection from=":bottom_0_0" to="bottom_0" fromLane="0" toLane="0" dir="s" state="M"/>
    <connection from=":bottom_1_0" to="bottom_1" fromLane="0" toLane="0" dir="s" state="M"/>
    <connection from=":bottom_2_0" to="bottom_2" fromLane="0" toLane="0" dir="s" state="M"/>
    <connection from=":left_0_0" to="left_0" fromLane="0" toLane="0" dir="s" state="M"/>
    <connection from=":left_1_0" to="left_1" fromLane="0" toLane="0" dir="s" state="M"/>
    <connection from=":left_2_0" to="left_2" fromLane="0" toLane="0" dir="s" state="M"/>
    <connection from=":right_0_0" to="right_0" fromLane="0" toLane="0" dir="s" state="M"/>
    <connection from=":right_1_0" to="right_1" fromLane="0" toLane="0" dir="s" state="M"/>
    <connection from=":right_2_0" to="right_2" fromLane="0" toLane="0" dir="s" state="M"/>
    <connection from=":top_0_0" to="top_0" fromLane="0" toLane="0" dir="s" state="M"/>
    <connection from=":top_1_0" to="top_1" fromLane="0" toLane="0" dir="s" state="M"/>
    <connection from=":top_2_0" to="top_2" fromLane="0" toLane="0" dir="s" state="M"/>

</net>
