<?xml version='1.0' encoding='UTF-8'?>
<configuration xmlns:xsi="http://www.w3.org/2001/XMLSchema-instance" xsi:noNamespaceSchemaLocation="http://sumo.dlr.de/xsd/sumoConfiguration.xsd">
  <input>
    <net-file value="lord_of_numrings1_20200317-1921211584444081.8459575.net.xml"/>
    <route-files value="lord_of_numrings1_20200317-1921211584444081.8459575.rou.xml"/>
    <additional-files value="lord_of_numrings1_20200317-1921211584444081.8459575.add.xml"/>
    <gui-settings-file value="lord_of_numrings1_20200317-1921211584444081.8459575.gui.cfg"/>
  </input>
  <time>
    <begin value="0"/>
  </time>
</configuration>
