<?xml version='1.0' encoding='UTF-8'?>
<configuration xmlns:xsi="http://www.w3.org/2001/XMLSchema-instance" xsi:noNamespaceSchemaLocation="http://sumo.dlr.de/xsd/sumoConfiguration.xsd">
  <input>
    <net-file value="lord_of_numrings3_20200319-0451361584564696.0917013.net.xml"/>
    <route-files value="lord_of_numrings3_20200319-0451361584564696.0917013.rou.xml"/>
    <additional-files value="lord_of_numrings3_20200319-0451361584564696.0917013.add.xml"/>
    <gui-settings-file value="lord_of_numrings3_20200319-0451361584564696.0917013.gui.cfg"/>
  </input>
  <time>
    <begin value="0"/>
  </time>
</configuration>
