<?xml version="1.0" encoding="UTF-8"?>

<!-- generated on Wed Mar 18 22:15:38 2020 by Eclipse SUMO netconvert Version v1_1_0+0000-2147d155b1
<configuration xmlns:xsi="http://www.w3.org/2001/XMLSchema-instance" xsi:noNamespaceSchemaLocation="http://sumo.dlr.de/xsd/netconvertConfiguration.xsd">

    <input>
        <node-files value="/home/ryc/flow/flow/core/kernel/network/debug/net/lord_of_numrings1_20200318-2215381584540938.8187282.nod.xml"/>
        <edge-files value="/home/ryc/flow/flow/core/kernel/network/debug/net/lord_of_numrings1_20200318-2215381584540938.8187282.edg.xml"/>
        <type-files value="/home/ryc/flow/flow/core/kernel/network/debug/net/lord_of_numrings1_20200318-2215381584540938.8187282.typ.xml"/>
    </input>

    <output>
        <output-file value="/home/ryc/flow/flow/core/kernel/network/debug/cfg/lord_of_numrings1_20200318-2215381584540938.8187282.net.xml"/>
    </output>

    <junctions>
        <no-internal-links value="false"/>
        <no-turnarounds value="true"/>
    </junctions>

</configuration>
-->

<net version="1.1" junctionCornerDetail="5" limitTurnSpeed="5.50" xmlns:xsi="http://www.w3.org/2001/XMLSchema-instance" xsi:noNamespaceSchemaLocation="http://sumo.dlr.de/xsd/net_file.xsd">

    <location netOffset="159.15,159.15" convBoundary="0.00,0.00,318.31,318.31" origBoundary="-159.15,-159.15,159.15,159.15" projParameter="!"/>

    <type id="edgeType" numLanes="1" speed="30.00"/>

    <edge id=":bottom_0_0" function="internal">
        <lane id=":bottom_0_0_0" index="0" speed="30.00" length="0.10" shape="159.12,-1.59 159.18,-1.59"/>
    </edge>
    <edge id=":left_0_0" function="internal">
        <lane id=":left_0_0_0" index="0" speed="30.00" length="0.10" shape="-1.59,159.18 -1.59,159.12"/>
    </edge>
    <edge id=":right_0_0" function="internal">
        <lane id=":right_0_0_0" index="0" speed="30.00" length="0.10" shape="319.90,159.12 319.90,159.18"/>
    </edge>
    <edge id=":top_0_0" function="internal">
        <lane id=":top_0_0_0" index="0" speed="30.00" length="0.10" shape="159.18,319.90 159.12,319.90"/>
    </edge>

    <edge id="bottom_0" from="bottom_0" to="right_0" priority="-1" type="edgeType" length="250.00" shape="159.15,0.00 165.56,0.12 171.96,0.51 178.33,1.16 184.68,2.06 190.99,3.21 197.24,4.62 203.43,6.28 209.55,8.19 215.59,10.34 221.53,12.73 227.38,15.36 233.11,18.23 238.73,21.32 244.21,24.63 249.56,28.17 254.76,31.91 259.81,35.87 264.69,40.02 269.40,44.37 273.93,48.90 278.28,53.61 282.43,58.49 286.39,63.54 290.13,68.74 293.67,74.09 296.98,79.57 300.07,85.19 302.94,90.92 305.57,96.77 307.96,102.71 310.11,108.75 312.02,114.87 313.68,121.06 315.09,127.31 316.24,133.62 317.14,139.97 317.79,146.34 318.18,152.74 318.30,159.15">
        <lane id="bottom_0_0" index="0" speed="30.00" length="250.00" shape="159.18,-1.59 165.63,-1.47 172.09,-1.08 178.53,-0.42 184.94,0.49 191.31,1.65 197.63,3.07 203.88,4.75 210.06,6.68 216.16,8.85 222.16,11.26 228.07,13.92 233.86,16.82 239.53,19.94 245.07,23.28 250.47,26.86 255.73,30.64 260.83,34.64 265.76,38.83 270.51,43.22 275.09,47.80 279.48,52.55 283.67,57.48 287.67,62.58 291.45,67.84 295.03,73.24 298.37,78.78 301.49,84.45 304.39,90.24 307.05,96.15 309.46,102.15 311.63,108.25 313.56,114.43 315.24,120.68 316.66,127.00 317.82,133.37 318.73,139.78 319.39,146.22 319.78,152.68 319.90,159.12"/>
    </edge>
    <edge id="left_0" from="left_0" to="bottom_0" priority="-1" type="edgeType" length="250.00" shape="0.00,159.15 0.12,152.74 0.51,146.34 1.16,139.97 2.06,133.62 3.21,127.31 4.62,121.06 6.28,114.87 8.19,108.75 10.34,102.71 12.73,96.77 15.36,90.92 18.23,85.19 21.32,79.57 24.63,74.09 28.17,68.74 31.91,63.54 35.87,58.49 40.02,53.61 44.37,48.90 48.90,44.37 53.61,40.02 58.49,35.87 63.54,31.91 68.74,28.17 74.09,24.63 79.57,21.32 85.19,18.23 90.92,15.36 96.77,12.73 102.71,10.34 108.75,8.19 114.87,6.28 121.06,4.62 127.31,3.21 133.62,2.06 139.97,1.16 146.34,0.51 152.74,0.12 159.15,0.00">
        <lane id="left_0_0" index="0" speed="30.00" length="250.00" shape="-1.59,159.12 -1.47,152.68 -1.08,146.22 -0.42,139.78 0.49,133.37 1.65,127.00 3.07,120.68 4.75,114.43 6.68,108.25 8.85,102.15 11.26,96.15 13.92,90.24 16.82,84.45 19.94,78.78 23.28,73.24 26.86,67.84 30.64,62.58 34.64,57.48 38.83,52.55 43.22,47.80 47.80,43.22 52.55,38.83 57.48,34.64 62.58,30.64 67.84,26.86 73.24,23.28 78.78,19.94 84.45,16.82 90.24,13.92 96.15,11.26 102.15,8.85 108.25,6.68 114.43,4.75 120.68,3.07 127.00,1.65 133.37,0.49 139.78,-0.42 146.22,-1.08 152.68,-1.47 159.12,-1.59"/>
    </edge>
    <edge id="right_0" from="right_0" to="top_0" priority="-1" type="edgeType" length="250.00" shape="318.30,159.15 318.18,165.56 317.79,171.96 317.14,178.33 316.24,184.68 315.09,190.99 313.68,197.24 312.02,203.43 310.11,209.55 307.96,215.59 305.57,221.53 302.94,227.38 300.07,233.11 296.98,238.73 293.67,244.21 290.13,249.56 286.39,254.76 282.43,259.81 278.28,264.69 273.93,269.40 269.40,273.93 264.69,278.28 259.81,282.43 254.76,286.39 249.56,290.13 244.21,293.67 238.73,296.98 233.11,300.07 227.38,302.94 221.53,305.57 215.59,307.96 209.55,310.11 203.43,312.02 197.24,313.68 190.99,315.09 184.68,316.24 178.33,317.14 171.96,317.79 165.56,318.18 159.15,318.30">
        <lane id="right_0_0" index="0" speed="30.00" length="250.00" shape="319.90,159.18 319.78,165.63 319.39,172.09 318.73,178.53 317.82,184.94 316.66,191.31 315.24,197.63 313.56,203.88 311.63,210.06 309.46,216.16 307.05,222.16 304.39,228.07 301.49,233.86 298.37,239.53 295.03,245.07 291.45,250.47 287.67,255.73 283.67,260.83 279.48,265.76 275.09,270.51 270.51,275.09 265.76,279.48 260.83,283.67 255.73,287.67 250.47,291.45 245.07,295.03 239.53,298.37 233.86,301.49 228.07,304.39 222.16,307.05 216.16,309.46 210.06,311.63 203.88,313.56 197.63,315.24 191.31,316.66 184.94,317.82 178.53,318.73 172.09,319.39 165.63,319.78 159.18,319.90"/>
    </edge>
    <edge id="top_0" from="top_0" to="left_0" priority="-1" type="edgeType" length="250.00" shape="159.15,318.30 152.74,318.18 146.34,317.79 139.97,317.14 133.62,316.24 127.31,315.09 121.06,313.68 114.87,312.02 108.75,310.11 102.71,307.96 96.77,305.57 90.92,302.94 85.19,300.07 79.57,296.98 74.09,293.67 68.74,290.13 63.54,286.39 58.49,282.43 53.61,278.28 48.90,273.93 44.37,269.40 40.02,264.69 35.87,259.81 31.91,254.76 28.17,249.56 24.63,244.21 21.32,238.73 18.23,233.11 15.36,227.38 12.73,221.53 10.34,215.59 8.19,209.55 6.28,203.43 4.62,197.24 3.21,190.99 2.06,184.68 1.16,178.33 0.51,171.96 0.12,165.56 0.00,159.15">
        <lane id="top_0_0" index="0" speed="30.00" length="250.00" shape="159.12,319.90 152.68,319.78 146.22,319.39 139.78,318.73 133.37,317.82 127.00,316.66 120.68,315.24 114.43,313.56 108.25,311.63 102.15,309.46 96.15,307.05 90.24,304.39 84.45,301.49 78.78,298.37 73.24,295.03 67.84,291.45 62.58,287.67 57.48,283.67 52.55,279.48 47.80,275.09 43.22,270.51 38.83,265.76 34.64,260.83 30.64,255.73 26.86,250.47 23.28,245.07 19.94,239.53 16.82,233.86 13.92,228.07 11.26,222.16 8.85,216.16 6.68,210.06 4.75,203.88 3.07,197.63 1.65,191.31 0.49,184.94 -0.42,178.53 -1.08,172.09 -1.47,165.63 -1.59,159.18"/>
    </edge>

    <junction id="bottom_0" type="priority" x="159.15" y="0.00" incLanes="left_0_0" intLanes=":bottom_0_0_0" shape="159.24,0.01 159.30,-3.19 159.01,-3.19 159.07,0.01">
        <request index="0" response="0" foes="0" cont="0"/>
    </junction>
    <junction id="left_0" type="priority" x="0.00" y="159.15" incLanes="top_0_0" intLanes=":left_0_0_0" shape="-3.19,159.30 0.01,159.24 0.01,159.07 -3.19,159.01">
        <request index="0" response="0" foes="0" cont="0"/>
    </junction>
    <junction id="right_0" type="priority" x="318.31" y="159.15" incLanes="bottom_0_0" intLanes=":right_0_0_0" shape="321.50,159.01 318.30,159.07 318.30,159.24 321.50,159.30">
        <request index="0" response="0" foes="0" cont="0"/>
    </junction>
    <junction id="top_0" type="priority" x="159.15" y="318.31" incLanes="right_0_0" intLanes=":top_0_0_0" shape="159.30,321.50 159.24,318.30 159.07,318.30 159.01,321.50">
        <request index="0" response="0" foes="0" cont="0"/>
    </junction>

    <connection from="bottom_0" to="right_0" fromLane="0" toLane="0" via=":right_0_0_0" dir="s" state="M"/>
    <connection from="left_0" to="bottom_0" fromLane="0" toLane="0" via=":bottom_0_0_0" dir="s" state="M"/>
    <connection from="right_0" to="top_0" fromLane="0" toLane="0" via=":top_0_0_0" dir="s" state="M"/>
    <connection from="top_0" to="left_0" fromLane="0" toLane="0" via=":left_0_0_0" dir="s" state="M"/>

    <connection from=":bottom_0_0" to="bottom_0" fromLane="0" toLane="0" dir="s" state="M"/>
    <connection from=":left_0_0" to="left_0" fromLane="0" toLane="0" dir="s" state="M"/>
    <connection from=":right_0_0" to="right_0" fromLane="0" toLane="0" dir="s" state="M"/>
    <connection from=":top_0_0" to="top_0" fromLane="0" toLane="0" dir="s" state="M"/>

</net>
