<?xml version='1.0' encoding='UTF-8'?>
<additional xmlns:xsi="http://www.w3.org/2001/XMLSchema-instance" xsi:noNamespaceSchemaLocation="http://sumo.dlr.de/xsd/additional_file.xsd">
  <vType id="idm" accel="2.6" decel="4.5" sigma="0.5" tau="1.0" minGap="2.5" maxSpeed="30" speedFactor="1.0" speedDev="0.1" impatience="0.5" carFollowModel="IDM" laneChangeModel="LC2013" lcStrategic="1.0" lcCooperative="1.0" lcSpeedGain="1.0" lcKeepRight="1.0"/>
  <vType id="rl" accel="2.6" decel="4.5" sigma="0.5" tau="1.0" minGap="2.5" maxSpeed="30" speedFactor="1.0" speedDev="0.1" impatience="0.5" carFollowModel="IDM" laneChangeModel="LC2013" lcStrategic="1.0" lcCooperative="1.0" lcSpeedGain="1.0" lcKeepRight="1.0"/>
  <tlLogic id="n_i3" type="static" programID="1">
    <param key="id" value="n_i3"/>
    <param key="type" value="static"/>
    <param key="programID" value="1"/>
    <phase duration="31" minDur="8" maxDur="45" state="GrGrGrGrGrGr"/>
    <phase duration="6" minDur="3" maxDur="6" state="yryryryryryr"/>
    <phase duration="31" minDur="8" maxDur="45" state="rGrGrGrGrGrG"/>
    <phase duration="6" minDur="3" maxDur="6" state="ryryryryryry"/>
  </tlLogic>
  <tlLogic id="n_i4" type="static" programID="1">
    <param key="id" value="n_i4"/>
    <param key="type" value="static"/>
    <param key="programID" value="1"/>
    <phase duration="31" minDur="8" maxDur="45" state="GrGrGrGrGrGr"/>
    <phase duration="6" minDur="3" maxDur="6" state="yryryryryryr"/>
    <phase duration="31" minDur="8" maxDur="45" state="rGrGrGrGrGrG"/>
    <phase duration="6" minDur="3" maxDur="6" state="ryryryryryry"/>
  </tlLogic>
</additional>
