<?xml version="1.0" encoding="UTF-8"?>

<!-- generated on Tue Mar 17 19:27:57 2020 by Eclipse SUMO netconvert Version v1_1_0+0000-2147d155b1
<configuration xmlns:xsi="http://www.w3.org/2001/XMLSchema-instance" xsi:noNamespaceSchemaLocation="http://sumo.dlr.de/xsd/netconvertConfiguration.xsd">

    <input>
        <node-files value="/home/ryc/flow/flow/core/kernel/network/debug/net/minicity_20200317-1927571584444477.3210065.nod.xml"/>
        <edge-files value="/home/ryc/flow/flow/core/kernel/network/debug/net/minicity_20200317-1927571584444477.3210065.edg.xml"/>
        <connection-files value="/home/ryc/flow/flow/core/kernel/network/debug/net/minicity_20200317-1927571584444477.3210065.con.xml"/>
        <type-files value="/home/ryc/flow/flow/core/kernel/network/debug/net/minicity_20200317-1927571584444477.3210065.typ.xml"/>
    </input>

    <output>
        <output-file value="/home/ryc/flow/flow/core/kernel/network/debug/cfg/minicity_20200317-1927571584444477.3210065.net.xml"/>
    </output>

    <junctions>
        <no-internal-links value="false"/>
        <no-turnarounds value="true"/>
    </junctions>

</configuration>
-->

<net version="1.1" junctionCornerDetail="5" limitTurnSpeed="5.50" xmlns:xsi="http://www.w3.org/2001/XMLSchema-instance" xsi:noNamespaceSchemaLocation="http://sumo.dlr.de/xsd/net_file.xsd">

    <location netOffset="-12.00,-16.00" convBoundary="0.00,0.00,214.39,214.00" origBoundary="12.00,16.00,226.39,230.00" projParameter="!"/>

    <type id="edgeType" speed="30.00"/>

    <edge id=":n_b1_0" function="internal">
        <lane id=":n_b1_0_0" index="0" speed="30.00" length="7.62" shape="9.20,143.84 9.20,136.23"/>
        <lane id=":n_b1_0_1" index="1" speed="30.00" length="7.62" shape="12.40,143.84 12.40,136.23"/>
    </edge>
    <edge id=":n_b1_2" function="internal">
        <lane id=":n_b1_2_0" index="0" speed="6.92" length="4.06" shape="12.40,143.84 13.10,140.89 14.00,140.39"/>
    </edge>
    <edge id=":n_b1_6" function="internal">
        <lane id=":n_b1_6_0" index="0" speed="6.92" length="10.46" shape="14.00,140.39 15.22,139.72 18.74,140.34 23.67,142.75"/>
    </edge>
    <edge id=":n_b1_3" function="internal">
        <lane id=":n_b1_3_0" index="0" speed="8.03" length="8.51" shape="18.80,136.23 19.10,138.01 20.02,139.69 21.54,141.27 23.67,142.75"/>
    </edge>
    <edge id=":n_b1_4" function="internal">
        <lane id=":n_b1_4_0" index="0" speed="30.00" length="7.62" shape="18.80,136.23 18.80,143.84"/>
        <lane id=":n_b1_4_1" index="1" speed="30.00" length="7.62" shape="15.60,136.23 15.60,143.84"/>
    </edge>
    <edge id=":n_b2_0" function="internal">
        <lane id=":n_b2_0_0" index="0" speed="30.00" length="8.40" shape="12.40,156.00 11.90,153.54 10.80,152.00 9.70,150.46 9.20,148.00"/>
        <lane id=":n_b2_0_1" index="1" speed="30.00" length="8.40" shape="12.40,156.00 12.40,148.00"/>
    </edge>
    <edge id=":n_b2_2" function="internal">
        <lane id=":n_b2_2_0" index="0" speed="30.00" length="8.40" shape="18.80,148.00 18.30,150.46 17.20,152.00 16.10,153.54 15.60,156.00"/>
        <lane id=":n_b2_2_1" index="1" speed="30.00" length="8.40" shape="15.60,148.00 15.60,156.00"/>
    </edge>
    <edge id=":n_b3_0" function="internal">
        <lane id=":n_b3_0_0" index="0" speed="30.00" length="0.10" shape="105.20,134.00 105.20,134.00"/>
        <lane id=":n_b3_0_1" index="1" speed="30.00" length="0.10" shape="108.40,134.00 108.40,134.00"/>
    </edge>
    <edge id=":n_b3_2" function="internal">
        <lane id=":n_b3_2_0" index="0" speed="30.00" length="0.10" shape="114.80,134.00 114.80,134.00"/>
        <lane id=":n_b3_2_1" index="1" speed="30.00" length="0.10" shape="111.60,134.00 111.60,134.00"/>
    </edge>
    <edge id=":n_b4_0" function="internal">
        <lane id=":n_b4_0_0" index="0" speed="30.00" length="8.40" shape="108.40,156.00 107.90,153.54 106.80,152.00 105.70,150.46 105.20,148.00"/>
        <lane id=":n_b4_0_1" index="1" speed="30.00" length="8.40" shape="108.40,156.00 108.40,148.00"/>
    </edge>
    <edge id=":n_b4_2" function="internal">
        <lane id=":n_b4_2_0" index="0" speed="30.00" length="8.40" shape="114.80,148.00 114.30,150.46 113.20,152.00 112.10,153.54 111.60,156.00"/>
        <lane id=":n_b4_2_1" index="1" speed="30.00" length="8.40" shape="111.60,148.00 111.60,156.00"/>
    </edge>
    <edge id=":n_b5_0" function="internal">
        <lane id=":n_b5_0_0" index="0" speed="30.00" length="0.10" shape="152.00,98.80 152.00,98.80"/>
        <lane id=":n_b5_0_1" index="1" speed="30.00" length="0.10" shape="152.00,95.60 152.00,95.60"/>
    </edge>
    <edge id=":n_b5_2" function="internal">
        <lane id=":n_b5_2_0" index="0" speed="30.00" length="0.10" shape="152.00,89.20 152.00,89.20"/>
        <lane id=":n_b5_2_1" index="1" speed="30.00" length="0.10" shape="152.00,92.40 152.00,92.40"/>
    </edge>
    <edge id=":n_b6_0" function="internal">
        <lane id=":n_b6_0_0" index="0" speed="30.00" length="8.40" shape="174.00,95.60 171.54,96.10 170.00,97.20 168.46,98.30 166.00,98.80"/>
        <lane id=":n_b6_0_1" index="1" speed="30.00" length="8.40" shape="174.00,95.60 166.00,95.60"/>
    </edge>
    <edge id=":n_b6_2" function="internal">
        <lane id=":n_b6_2_0" index="0" speed="30.00" length="8.40" shape="166.00,89.20 168.46,89.70 170.00,90.80 171.54,91.90 174.00,92.40"/>
        <lane id=":n_b6_2_1" index="1" speed="30.00" length="8.40" shape="166.00,92.40 174.00,92.40"/>
    </edge>
    <edge id=":n_i1_0" function="internal">
        <lane id=":n_i1_0_0" index="0" speed="30.00" length="20.80" shape="9.20,104.40 9.20,83.60"/>
        <lane id=":n_i1_0_1" index="1" speed="30.00" length="20.80" shape="12.40,104.40 12.40,83.60"/>
    </edge>
    <edge id=":n_i1_2" function="internal">
        <lane id=":n_i1_2_0" index="0" speed="9.26" length="6.96" shape="12.40,104.40 13.15,99.15 14.00,97.73"/>
    </edge>
    <edge id=":n_i1_8" function="internal">
        <lane id=":n_i1_8_0" index="0" speed="9.26" length="12.40" shape="14.00,97.73 15.40,95.40 19.15,93.15 24.40,92.40"/>
    </edge>
    <edge id=":n_i1_3" function="internal">
        <lane id=":n_i1_3_0" index="0" speed="6.51" length="9.03" shape="24.40,98.80 21.95,99.15 20.20,100.20 19.15,101.95 18.80,104.40"/>
    </edge>
    <edge id=":n_i1_4" function="internal">
        <lane id=":n_i1_4_0" index="0" speed="9.26" length="19.35" shape="24.40,95.60 19.15,94.85 15.40,92.60 13.15,88.85 12.40,83.60"/>
    </edge>
    <edge id=":n_i1_5" function="internal">
        <lane id=":n_i1_5_0" index="0" speed="6.51" length="9.03" shape="18.80,83.60 19.15,86.05 20.20,87.80 21.95,88.85 24.40,89.20"/>
    </edge>
    <edge id=":n_i1_6" function="internal">
        <lane id=":n_i1_6_0" index="0" speed="30.00" length="20.80" shape="18.80,83.60 18.80,104.40"/>
        <lane id=":n_i1_6_1" index="1" speed="30.00" length="20.80" shape="15.60,83.60 15.60,104.40"/>
    </edge>
    <edge id=":n_i2_0" function="internal">
        <lane id=":n_i2_0_0" index="0" speed="30.00" length="14.40" shape="12.40,187.20 12.40,172.80"/>
    </edge>
    <edge id=":n_i2_1" function="internal">
        <lane id=":n_i2_1_0" index="0" speed="8.00" length="5.93" shape="12.40,187.20 12.95,183.35 14.00,181.60"/>
    </edge>
    <edge id=":n_i2_6" function="internal">
        <lane id=":n_i2_6_0" index="0" speed="8.00" length="8.26" shape="14.00,181.60 14.60,180.60 17.35,178.95 21.20,178.40"/>
    </edge>
    <edge id=":n_i2_2" function="internal">
        <lane id=":n_i2_2_0" index="0" speed="6.51" length="9.03" shape="21.20,181.60 18.75,181.95 17.00,183.00 15.95,184.75 15.60,187.20"/>
    </edge>
    <edge id=":n_i2_3" function="internal">
        <lane id=":n_i2_3_0" index="0" speed="8.00" length="14.19" shape="21.20,181.60 17.35,181.05 14.60,179.40 12.95,176.65 12.40,172.80"/>
    </edge>
    <edge id=":n_i2_4" function="internal">
        <lane id=":n_i2_4_0" index="0" speed="6.51" length="9.03" shape="15.60,172.80 15.95,175.25 17.00,177.00 18.75,178.05 21.20,178.40"/>
    </edge>
    <edge id=":n_i2_5" function="internal">
        <lane id=":n_i2_5_0" index="0" speed="30.00" length="14.40" shape="15.60,172.80 15.60,187.20"/>
    </edge>
    <edge id=":n_i3_0" function="internal">
        <lane id=":n_i3_0_0" index="0" speed="6.51" length="9.03" shape="105.20,104.40 104.85,101.95 103.80,100.20 102.05,99.15 99.60,98.80"/>
    </edge>
    <edge id=":n_i3_1" function="internal">
        <lane id=":n_i3_1_0" index="0" speed="30.00" length="20.80" shape="105.20,104.40 105.20,83.60"/>
        <lane id=":n_i3_1_1" index="1" speed="30.00" length="20.80" shape="108.40,104.40 108.40,83.60"/>
    </edge>
    <edge id=":n_i3_3" function="internal">
        <lane id=":n_i3_3_0" index="0" speed="9.26" length="6.96" shape="108.40,104.40 109.15,99.15 110.00,97.73"/>
    </edge>
    <edge id=":n_i3_16" function="internal">
        <lane id=":n_i3_16_0" index="0" speed="9.26" length="12.40" shape="110.00,97.73 111.40,95.40 115.15,93.15 120.40,92.40"/>
    </edge>
    <edge id=":n_i3_4" function="internal">
        <lane id=":n_i3_4_0" index="0" speed="6.51" length="9.03" shape="120.40,98.80 117.95,99.15 116.20,100.20 115.15,101.95 114.80,104.40"/>
    </edge>
    <edge id=":n_i3_5" function="internal">
        <lane id=":n_i3_5_0" index="0" speed="30.00" length="20.80" shape="120.40,98.80 99.60,98.80"/>
        <lane id=":n_i3_5_1" index="1" speed="30.00" length="20.80" shape="120.40,95.60 99.60,95.60"/>
    </edge>
    <edge id=":n_i3_7" function="internal">
        <lane id=":n_i3_7_0" index="0" speed="9.26" length="19.35" shape="120.40,95.60 115.15,94.85 111.40,92.60 109.15,88.85 108.40,83.60"/>
    </edge>
    <edge id=":n_i3_8" function="internal">
        <lane id=":n_i3_8_0" index="0" speed="6.51" length="9.03" shape="114.80,83.60 115.15,86.05 116.20,87.80 117.95,88.85 120.40,89.20"/>
    </edge>
    <edge id=":n_i3_9" function="internal">
        <lane id=":n_i3_9_0" index="0" speed="30.00" length="20.80" shape="114.80,83.60 114.80,104.40"/>
        <lane id=":n_i3_9_1" index="1" speed="30.00" length="20.80" shape="111.60,83.60 111.60,104.40"/>
    </edge>
    <edge id=":n_i3_11" function="internal">
        <lane id=":n_i3_11_0" index="0" speed="9.26" length="6.96" shape="111.60,83.60 110.85,88.85 110.00,90.27"/>
    </edge>
    <edge id=":n_i3_17" function="internal">
        <lane id=":n_i3_17_0" index="0" speed="9.26" length="12.40" shape="110.00,90.27 108.60,92.60 104.85,94.85 99.60,95.60"/>
    </edge>
    <edge id=":n_i3_12" function="internal">
        <lane id=":n_i3_12_0" index="0" speed="6.51" length="9.03" shape="99.60,89.20 102.05,88.85 103.80,87.80 104.85,86.05 105.20,83.60"/>
    </edge>
    <edge id=":n_i3_13" function="internal">
        <lane id=":n_i3_13_0" index="0" speed="30.00" length="20.80" shape="99.60,89.20 120.40,89.20"/>
        <lane id=":n_i3_13_1" index="1" speed="30.00" length="20.80" shape="99.60,92.40 120.40,92.40"/>
    </edge>
    <edge id=":n_i3_15" function="internal">
        <lane id=":n_i3_15_0" index="0" speed="9.26" length="19.35" shape="99.60,92.40 104.85,93.15 108.60,95.40 110.85,99.15 111.60,104.40"/>
    </edge>
    <edge id=":n_i4_0" function="internal">
        <lane id=":n_i4_0_0" index="0" speed="6.51" length="9.03" shape="108.40,187.20 108.05,184.75 107.00,183.00 105.25,181.95 102.80,181.60"/>
    </edge>
    <edge id=":n_i4_1" function="internal">
        <lane id=":n_i4_1_0" index="0" speed="30.00" length="14.40" shape="108.40,187.20 108.40,172.80"/>
    </edge>
    <edge id=":n_i4_2" function="internal">
        <lane id=":n_i4_2_0" index="0" speed="8.00" length="5.93" shape="108.40,187.20 108.95,183.35 110.00,181.60"/>
    </edge>
    <edge id=":n_i4_12" function="internal">
        <lane id=":n_i4_12_0" index="0" speed="8.00" length="8.26" shape="110.00,181.60 110.60,180.60 113.35,178.95 117.20,178.40"/>
    </edge>
    <edge id=":n_i4_3" function="internal">
        <lane id=":n_i4_3_0" index="0" speed="6.51" length="9.03" shape="117.20,181.60 114.75,181.95 113.00,183.00 111.95,184.75 111.60,187.20"/>
    </edge>
    <edge id=":n_i4_4" function="internal">
        <lane id=":n_i4_4_0" index="0" speed="30.00" length="14.40" shape="117.20,181.60 102.80,181.60"/>
    </edge>
    <edge id=":n_i4_5" function="internal">
        <lane id=":n_i4_5_0" index="0" speed="8.00" length="14.19" shape="117.20,181.60 113.35,181.05 110.60,179.40 108.95,176.65 108.40,172.80"/>
    </edge>
    <edge id=":n_i4_6" function="internal">
        <lane id=":n_i4_6_0" index="0" speed="6.51" length="9.03" shape="111.60,172.80 111.95,175.25 113.00,177.00 114.75,178.05 117.20,178.40"/>
    </edge>
    <edge id=":n_i4_7" function="internal">
        <lane id=":n_i4_7_0" index="0" speed="30.00" length="14.40" shape="111.60,172.80 111.60,187.20"/>
    </edge>
    <edge id=":n_i4_8" function="internal">
        <lane id=":n_i4_8_0" index="0" speed="8.00" length="5.93" shape="111.60,172.80 111.05,176.65 110.00,178.40"/>
    </edge>
    <edge id=":n_i4_13" function="internal">
        <lane id=":n_i4_13_0" index="0" speed="8.00" length="8.26" shape="110.00,178.40 109.40,179.40 106.65,181.05 102.80,181.60"/>
    </edge>
    <edge id=":n_i4_9" function="internal">
        <lane id=":n_i4_9_0" index="0" speed="6.51" length="9.03" shape="102.80,178.40 105.25,178.05 107.00,177.00 108.05,175.25 108.40,172.80"/>
    </edge>
    <edge id=":n_i4_10" function="internal">
        <lane id=":n_i4_10_0" index="0" speed="30.00" length="14.40" shape="102.80,178.40 117.20,178.40"/>
    </edge>
    <edge id=":n_i4_11" function="internal">
        <lane id=":n_i4_11_0" index="0" speed="8.00" length="14.19" shape="102.80,178.40 106.65,178.95 109.40,180.60 111.05,183.35 111.60,187.20"/>
    </edge>
    <edge id=":n_i5_0" function="internal">
        <lane id=":n_i5_0_0" index="0" speed="30.00" length="14.40" shape="117.20,215.60 102.80,215.60"/>
    </edge>
    <edge id=":n_i5_1" function="internal">
        <lane id=":n_i5_1_0" index="0" speed="8.00" length="5.93" shape="117.20,215.60 113.35,215.05 111.60,214.00"/>
    </edge>
    <edge id=":n_i5_6" function="internal">
        <lane id=":n_i5_6_0" index="0" speed="8.00" length="8.26" shape="111.60,214.00 110.60,213.40 108.95,210.65 108.40,206.80"/>
    </edge>
    <edge id=":n_i5_2" function="internal">
        <lane id=":n_i5_2_0" index="0" speed="6.51" length="9.03" shape="111.60,206.80 111.95,209.25 113.00,211.00 114.75,212.05 117.20,212.40"/>
    </edge>
    <edge id=":n_i5_3" function="internal">
        <lane id=":n_i5_3_0" index="0" speed="8.00" length="14.19" shape="111.60,206.80 111.05,210.65 109.40,213.40 106.65,215.05 102.80,215.60"/>
    </edge>
    <edge id=":n_i5_4" function="internal">
        <lane id=":n_i5_4_0" index="0" speed="6.51" length="9.03" shape="102.80,212.40 105.25,212.05 107.00,211.00 108.05,209.25 108.40,206.80"/>
    </edge>
    <edge id=":n_i5_5" function="internal">
        <lane id=":n_i5_5_0" index="0" speed="30.00" length="14.40" shape="102.80,212.40 117.20,212.40"/>
    </edge>
    <edge id=":n_i6_0" function="internal">
        <lane id=":n_i6_0_0" index="0" speed="6.51" length="9.03" shape="189.60,101.20 189.25,98.75 188.20,97.00 186.45,95.95 184.00,95.60"/>
    </edge>
    <edge id=":n_i6_1" function="internal">
        <lane id=":n_i6_1_0" index="0" speed="30.00" length="14.40" shape="189.60,101.20 189.60,86.80"/>
    </edge>
    <edge id=":n_i6_2" function="internal">
        <lane id=":n_i6_2_0" index="0" speed="30.00" length="14.40" shape="192.80,86.80 192.80,101.20"/>
    </edge>
    <edge id=":n_i6_3" function="internal">
        <lane id=":n_i6_3_0" index="0" speed="8.00" length="5.93" shape="192.80,86.80 192.25,90.65 191.20,92.40"/>
    </edge>
    <edge id=":n_i6_6" function="internal">
        <lane id=":n_i6_6_0" index="0" speed="8.00" length="8.26" shape="191.20,92.40 190.60,93.40 187.85,95.05 184.00,95.60"/>
    </edge>
    <edge id=":n_i6_4" function="internal">
        <lane id=":n_i6_4_0" index="0" speed="6.51" length="9.03" shape="184.00,92.40 186.45,92.05 188.20,91.00 189.25,89.25 189.60,86.80"/>
    </edge>
    <edge id=":n_i6_5" function="internal">
        <lane id=":n_i6_5_0" index="0" speed="8.00" length="14.19" shape="184.00,92.40 187.85,92.95 190.60,94.60 192.25,97.35 192.80,101.20"/>
    </edge>
    <edge id=":n_i7_0" function="internal">
        <lane id=":n_i7_0_0" index="0" speed="6.58" length="9.26" shape="189.60,141.49 189.25,138.91 188.20,137.07 186.45,135.97 184.00,135.60"/>
    </edge>
    <edge id=":n_i7_1" function="internal">
        <lane id=":n_i7_1_0" index="0" speed="30.00" length="14.69" shape="189.60,141.49 189.60,126.80"/>
    </edge>
    <edge id=":n_i7_2" function="internal">
        <lane id=":n_i7_2_0" index="0" speed="7.38" length="6.62" shape="189.60,141.49 190.15,136.98 191.20,135.18"/>
    </edge>
    <edge id=":n_i7_12" function="internal">
        <lane id=":n_i7_12_0" index="0" speed="7.38" length="8.06" shape="191.20,135.18 191.80,134.15 194.55,133.01 198.40,133.55"/>
    </edge>
    <edge id=":n_i7_3" function="internal">
        <lane id=":n_i7_3_0" index="0" speed="5.84" length="9.14" shape="198.29,136.90 195.89,136.34 194.17,136.92 193.14,138.64 192.80,141.49"/>
    </edge>
    <edge id=":n_i7_4" function="internal">
        <lane id=":n_i7_4_0" index="0" speed="25.28" length="14.45" shape="198.29,136.90 194.81,135.90 191.28,135.54 187.69,135.54 184.00,135.60"/>
    </edge>
    <edge id=":n_i7_5" function="internal">
        <lane id=":n_i7_5_0" index="0" speed="9.43" length="14.16" shape="198.29,136.90 194.49,134.94 191.77,132.60 190.14,129.89 189.60,126.80"/>
    </edge>
    <edge id=":n_i7_6" function="internal">
        <lane id=":n_i7_6_0" index="0" speed="7.49" length="9.46" shape="192.80,126.80 193.15,129.09 194.20,130.98 195.95,132.47 198.40,133.55"/>
    </edge>
    <edge id=":n_i7_7" function="internal">
        <lane id=":n_i7_7_0" index="0" speed="30.00" length="14.69" shape="192.80,126.80 192.80,141.49"/>
    </edge>
    <edge id=":n_i7_8" function="internal">
        <lane id=":n_i7_8_0" index="0" speed="8.00" length="5.93" shape="192.80,126.80 192.25,130.65 191.20,132.40"/>
    </edge>
    <edge id=":n_i7_13" function="internal">
        <lane id=":n_i7_13_0" index="0" speed="8.00" length="8.26" shape="191.20,132.40 190.60,133.40 187.85,135.05 184.00,135.60"/>
    </edge>
    <edge id=":n_i7_9" function="internal">
        <lane id=":n_i7_9_0" index="0" speed="6.51" length="9.03" shape="184.00,132.40 186.45,132.05 188.20,131.00 189.25,129.25 189.60,126.80"/>
    </edge>
    <edge id=":n_i7_10" function="internal">
        <lane id=":n_i7_10_0" index="0" speed="30.00" length="14.51" shape="184.00,132.40 187.69,132.37 191.29,132.41 194.84,132.74 198.40,133.55"/>
    </edge>
    <edge id=":n_i7_11" function="internal">
        <lane id=":n_i7_11_0" index="0" speed="8.06" length="14.42" shape="184.00,132.40 187.85,132.97 190.60,134.67 192.25,137.51 192.80,141.49"/>
    </edge>
    <edge id=":n_i8_0" function="internal">
        <lane id=":n_i8_0_0" index="0" speed="6.51" length="9.03" shape="189.60,187.20 189.25,184.75 188.20,183.00 186.45,181.95 184.00,181.60"/>
    </edge>
    <edge id=":n_i8_1" function="internal">
        <lane id=":n_i8_1_0" index="0" speed="30.00" length="14.40" shape="189.60,187.20 189.60,172.80"/>
    </edge>
    <edge id=":n_i8_2" function="internal">
        <lane id=":n_i8_2_0" index="0" speed="30.00" length="14.40" shape="192.80,172.80 192.80,187.20"/>
    </edge>
    <edge id=":n_i8_3" function="internal">
        <lane id=":n_i8_3_0" index="0" speed="8.00" length="5.93" shape="192.80,172.80 192.25,176.65 191.20,178.40"/>
    </edge>
    <edge id=":n_i8_6" function="internal">
        <lane id=":n_i8_6_0" index="0" speed="8.00" length="8.26" shape="191.20,178.40 190.60,179.40 187.85,181.05 184.00,181.60"/>
    </edge>
    <edge id=":n_i8_4" function="internal">
        <lane id=":n_i8_4_0" index="0" speed="6.51" length="9.03" shape="184.00,178.40 186.45,178.05 188.20,177.00 189.25,175.25 189.60,172.80"/>
    </edge>
    <edge id=":n_i8_5" function="internal">
        <lane id=":n_i8_5_0" index="0" speed="8.00" length="14.19" shape="184.00,178.40 187.85,178.95 190.60,180.60 192.25,183.35 192.80,187.20"/>
    </edge>
    <edge id=":n_i9_0" function="internal">
        <lane id=":n_i9_0_0" index="0" speed="30.00" length="14.50" shape="198.40,214.45 194.84,215.26 191.28,215.59 187.69,215.63 184.00,215.60"/>
    </edge>
    <edge id=":n_i9_1" function="internal">
        <lane id=":n_i9_1_0" index="0" speed="7.38" length="6.51" shape="198.40,214.45 194.55,214.99 192.13,213.98"/>
    </edge>
    <edge id=":n_i9_6" function="internal">
        <lane id=":n_i9_6_0" index="0" speed="7.38" length="8.17" shape="192.13,213.98 191.80,213.85 190.15,211.02 189.60,206.51"/>
    </edge>
    <edge id=":n_i9_2" function="internal">
        <lane id=":n_i9_2_0" index="0" speed="5.84" length="9.14" shape="192.80,206.51 193.14,209.36 194.17,211.08 195.89,211.66 198.29,211.11"/>
    </edge>
    <edge id=":n_i9_3" function="internal">
        <lane id=":n_i9_3_0" index="0" speed="8.06" length="14.42" shape="192.80,206.51 192.25,210.49 190.60,213.33 187.85,215.03 184.00,215.60"/>
    </edge>
    <edge id=":n_i9_4" function="internal">
        <lane id=":n_i9_4_0" index="0" speed="6.58" length="9.26" shape="184.00,212.40 186.45,212.03 188.20,210.93 189.25,209.09 189.60,206.51"/>
    </edge>
    <edge id=":n_i9_5" function="internal">
        <lane id=":n_i9_5_0" index="0" speed="25.29" length="14.45" shape="184.00,212.40 187.69,212.46 191.28,212.46 194.81,212.10 198.29,211.11"/>
    </edge>
    <edge id=":n_m1_b_0" function="internal">
        <lane id=":n_m1_b_0_0" index="0" speed="30.00" length="0.10" shape="61.20,-4.80 61.20,-4.80"/>
        <lane id=":n_m1_b_0_1" index="1" speed="30.00" length="0.10" shape="61.20,-1.60 61.20,-1.60"/>
    </edge>
    <edge id=":n_m1_u_0" function="internal">
        <lane id=":n_m1_u_0_0" index="0" speed="10.42" length="17.67" shape="78.68,11.87 76.71,8.79 73.54,6.59 69.17,5.26 63.60,4.80"/>
    </edge>
    <edge id=":n_m1_u_1" function="internal">
        <lane id=":n_m1_u_1_0" index="0" speed="30.00" length="17.54" shape="81.14,4.80 63.60,4.80"/>
        <lane id=":n_m1_u_1_1" index="1" speed="30.00" length="17.54" shape="81.14,1.60 63.60,1.60"/>
    </edge>
    <edge id=":n_m2_0" function="internal">
        <lane id=":n_m2_0_0" index="0" speed="30.00" length="7.62" shape="78.64,98.80 71.02,98.80"/>
        <lane id=":n_m2_0_1" index="1" speed="30.00" length="7.62" shape="78.64,95.60 71.02,95.60"/>
    </edge>
    <edge id=":n_m2_2" function="internal">
        <lane id=":n_m2_2_0" index="0" speed="6.92" length="4.13" shape="78.64,95.60 75.61,94.89 75.11,94.00"/>
    </edge>
    <edge id=":n_m2_6" function="internal">
        <lane id=":n_m2_6_0" index="0" speed="6.92" length="10.52" shape="75.11,94.00 74.42,92.78 75.07,89.25 77.56,84.31"/>
    </edge>
    <edge id=":n_m2_3" function="internal">
        <lane id=":n_m2_3_0" index="0" speed="8.09" length="8.52" shape="71.02,89.20 72.78,88.89 74.45,87.98 76.04,86.45 77.56,84.31"/>
    </edge>
    <edge id=":n_m2_4" function="internal">
        <lane id=":n_m2_4_0" index="0" speed="30.00" length="7.62" shape="71.02,89.20 78.64,89.20"/>
        <lane id=":n_m2_4_1" index="1" speed="30.00" length="7.62" shape="71.02,92.40 78.64,92.40"/>
    </edge>
    <edge id=":n_m3_0" function="internal">
        <lane id=":n_m3_0_0" index="0" speed="30.00" length="13.38" shape="74.72,181.60 61.34,181.60"/>
    </edge>
    <edge id=":n_m3_1" function="internal">
        <lane id=":n_m3_1_0" index="0" speed="12.86" length="13.93" shape="61.86,173.99 64.72,176.09 67.80,177.45 71.12,178.18 74.72,178.40"/>
    </edge>
    <edge id=":n_m3_2" function="internal">
        <lane id=":n_m3_2_0" index="0" speed="6.02" length="12.39" shape="61.86,173.99 64.97,177.32 65.92,179.70 64.71,181.12 61.34,181.60"/>
    </edge>
    <edge id=":n_m3_3" function="internal">
        <lane id=":n_m3_3_0" index="0" speed="30.00" length="13.38" shape="61.34,178.40 74.72,178.40"/>
    </edge>
    <edge id=":n_m4_0" function="internal">
        <lane id=":n_m4_0_0" index="0" speed="10.43" length="18.35" shape="104.43,13.90 102.29,9.92 99.18,7.08 95.11,5.37 90.07,4.80"/>
        <lane id=":n_m4_0_1" index="1" speed="11.71" length="18.35" shape="105.85,9.51 103.07,6.05 99.52,3.58 95.19,2.09 90.07,1.60"/>
    </edge>
    <edge id=":n_m4_2" function="internal">
        <lane id=":n_m4_2_0" index="0" speed="30.00" length="16.97" shape="107.04,4.80 90.07,4.80"/>
        <lane id=":n_m4_2_1" index="1" speed="30.00" length="16.97" shape="107.04,1.60 90.07,1.60"/>
    </edge>
    <edge id=":n_m4_4" function="internal">
        <lane id=":n_m4_4_0" index="0" speed="30.00" length="16.97" shape="90.07,-4.80 107.04,-4.80"/>
        <lane id=":n_m4_4_1" index="1" speed="30.00" length="16.97" shape="90.07,-1.60 107.04,-1.60"/>
    </edge>
    <edge id=":n_m5_0" function="internal">
        <lane id=":n_m5_0_0" index="0" speed="30.00" length="14.40" shape="163.20,181.60 148.80,181.60"/>
    </edge>
    <edge id=":n_m5_1" function="internal">
        <lane id=":n_m5_1_0" index="0" speed="8.00" length="5.93" shape="163.20,181.60 159.35,181.05 157.60,180.00"/>
    </edge>
    <edge id=":n_m5_6" function="internal">
        <lane id=":n_m5_6_0" index="0" speed="8.00" length="8.26" shape="157.60,180.00 156.60,179.40 154.95,176.65 154.40,172.80"/>
    </edge>
    <edge id=":n_m5_2" function="internal">
        <lane id=":n_m5_2_0" index="0" speed="6.51" length="9.03" shape="157.60,172.80 157.95,175.25 159.00,177.00 160.75,178.05 163.20,178.40"/>
    </edge>
    <edge id=":n_m5_3" function="internal">
        <lane id=":n_m5_3_0" index="0" speed="8.00" length="14.19" shape="157.60,172.80 157.05,176.65 155.40,179.40 152.65,181.05 148.80,181.60"/>
    </edge>
    <edge id=":n_m5_4" function="internal">
        <lane id=":n_m5_4_0" index="0" speed="6.51" length="9.03" shape="148.80,178.40 151.25,178.05 153.00,177.00 154.05,175.25 154.40,172.80"/>
    </edge>
    <edge id=":n_m5_5" function="internal">
        <lane id=":n_m5_5_0" index="0" speed="30.00" length="14.40" shape="148.80,178.40 163.20,178.40"/>
    </edge>
    <edge id=":n_r1_0" function="internal">
        <lane id=":n_r1_0_0" index="0" speed="21.90" length="16.03" shape="8.80,50.61 8.00,45.99 6.98,42.91 5.35,40.07 2.73,36.14"/>
        <lane id=":n_r1_0_1" index="1" speed="22.96" length="16.03" shape="11.77,48.92 10.87,44.27 9.77,41.18 8.07,38.33 5.39,34.37"/>
    </edge>
    <edge id=":n_r1_2" function="internal">
        <lane id=":n_r1_2_0" index="0" speed="15.08" length="15.49" shape="15.54,45.79 10.94,44.17 7.94,42.54 5.53,40.12 2.73,36.14"/>
        <lane id=":n_r1_2_1" index="1" speed="14.09" length="15.49" shape="16.53,42.74 12.53,41.34 9.92,39.92 7.83,37.82 5.39,34.37"/>
    </edge>
    <edge id=":n_r2_0" function="internal">
        <lane id=":n_r2_0_0" index="0" speed="30.00" length="20.79" shape="22.38,-4.75 43.17,-4.80"/>
    </edge>
    <edge id=":n_r2_1" function="internal">
        <lane id=":n_r2_1_0" index="0" speed="14.30" length="22.12" shape="22.38,-4.75 27.93,-4.64 33.12,-3.34 37.94,-0.85 42.40,2.84"/>
    </edge>
    <edge id=":n_r2_2" function="internal">
        <lane id=":n_r2_2_0" index="0" speed="30.00" length="20.71" shape="22.46,-1.55 43.17,-1.60"/>
    </edge>
    <edge id=":n_r2_3" function="internal">
        <lane id=":n_r2_3_0" index="0" speed="13.29" length="21.66" shape="22.46,-1.55 27.91,-1.39 32.92,0.03 37.47,2.73 41.59,6.69"/>
    </edge>
    <edge id=":n_r3_0" function="internal">
        <lane id=":n_r3_0_0" index="0" speed="30.00" length="8.11" shape="33.76,45.30 26.34,48.59"/>
    </edge>
    <edge id=":n_r3_1" function="internal">
        <lane id=":n_r3_1_0" index="0" speed="27.35" length="8.33" shape="33.76,45.30 31.46,46.20 29.84,46.71 28.16,46.98 25.70,47.15"/>
    </edge>
    <edge id=":n_r3_2" function="internal">
        <lane id=":n_r3_2_0" index="0" speed="30.00" length="8.25" shape="32.58,42.32 25.05,45.66"/>
    </edge>
    <edge id=":n_r3_3" function="internal">
        <lane id=":n_r3_3_0" index="0" speed="20.43" length="8.53" shape="32.58,42.32 30.23,43.24 28.56,43.74 26.83,43.95 24.31,44.00"/>
    </edge>
    <edge id=":n_r4_0" function="internal">
        <lane id=":n_r4_0_0" index="0" speed="30.00" length="0.30" shape="45.28,36.13 45.10,36.39"/>
        <lane id=":n_r4_0_1" index="1" speed="30.00" length="0.30" shape="42.66,34.29 42.50,34.52"/>
    </edge>
    <edge id=":n_r4_tmp_0" function="internal">
        <lane id=":n_r4_tmp_0_0" index="0" speed="10.99" length="12.49" shape="52.32,9.14 51.31,10.65 50.59,13.17 50.15,16.68 50.00,21.20"/>
    </edge>
    <edge id=":n_r4_tmp_1" function="internal">
        <lane id=":n_r4_tmp_1_0" index="0" speed="12.02" length="15.00" shape="50.06,6.88 48.63,8.84 47.62,11.88 47.01,16.00 46.80,21.20"/>
    </edge>
    <edge id=":n_r4_tmp_2" function="internal">
        <lane id=":n_r4_tmp_2_0" index="0" speed="15.79" length="15.54" shape="45.02,5.91 47.81,9.90 49.30,12.97 49.90,16.33 50.00,21.20"/>
        <lane id=":n_r4_tmp_2_1" index="1" speed="14.82" length="15.54" shape="42.44,7.80 44.88,11.30 46.18,13.99 46.71,16.93 46.80,21.20"/>
    </edge>
    <edge id=":n_r5_0" function="internal">
        <lane id=":n_r5_0_0" index="0" speed="10.59" length="13.11" shape="163.98,24.26 164.45,20.69 164.19,17.43 163.19,14.50 161.45,11.88"/>
    </edge>
    <edge id=":n_r5_1" function="internal">
        <lane id=":n_r5_1_0" index="0" speed="17.74" length="14.14" shape="163.98,24.26 164.98,20.22 166.05,17.52 167.70,15.14 170.46,12.00"/>
    </edge>
    <edge id=":n_r5_2" function="internal">
        <lane id=":n_r5_2_0" index="0" speed="11.66" length="6.90" shape="167.10,24.97 167.68,21.03 167.59,18.11"/>
    </edge>
    <edge id=":n_r5_3" function="internal">