<?xml version='1.0' encoding='UTF-8'?>
<routes xmlns:xsi="http://www.w3.org/2001/XMLSchema-instance" xsi:noNamespaceSchemaLocation="http://sumo.dlr.de/xsd/routes_file.xsd">
  <route id="routee_1_0" edges="e_1"/>
  <route id="routee_2_0" edges="e_2"/>
  <route id="routee_3_0" edges="e_3"/>
  <route id="routee_4_0" edges="e_4"/>
  <route id="routee_5_0" edges="e_5"/>
  <route id="routee_6_0" edges="e_6"/>
  <route id="routee_7_0" edges="e_7"/>
  <route id="routee_8_b_0" edges="e_8_b"/>
  <route id="routee_8_u_0" edges="e_8_u"/>
  <route id="routee_9_0" edges="e_9"/>
  <route id="routee_10_0" edges="e_10"/>
  <route id="routee_11_0" edges="e_11"/>
  <route id="routee_12_0" edges="e_12"/>
  <route id="routee_13_0" edges="e_13"/>
  <route id="routee_14_0" edges="e_14"/>
  <route id="routee_15_0" edges="e_15"/>
  <route id="routee_16_0" edges="e_16"/>
  <route id="routee_17_0" edges="e_17"/>
  <route id="routee_18_0" edges="e_18"/>
  <route id="routee_19_0" edges="e_19"/>
  <route id="routee_20_0" edges="e_20"/>
  <route id="routee_21_0" edges="e_21"/>
  <route id="routee_22_0" edges="e_22"/>
  <route id="routee_23_0" edges="e_23"/>
  <route id="routee_24_0" edges="e_24"/>
  <route id="routee_25_0" edges="e_25"/>
  <route id="routee_26_0" edges="e_26"/>
  <route id="routee_27_0" edges="e_27"/>
  <route id="routee_28_b_0" edges="e_28_b"/>
  <route id="routee_29_u_0" edges="e_29_u"/>
  <route id="routee_30_0" edges="e_30"/>
  <route id="routee_31_0" edges="e_31"/>
  <route id="routee_32_0" edges="e_32"/>
  <route id="routee_33_0" edges="e_33"/>
  <route id="routee_34_0" edges="e_34"/>
  <route id="routee_35_0" edges="e_35"/>
  <route id="routee_36_0" edges="e_36"/>
  <route id="routee_37_0" edges="e_37"/>
  <route id="routee_38_0" edges="e_38"/>
  <route id="routee_39_0" edges="e_39"/>
  <route id="routee_40_0" edges="e_40"/>
  <route id="routee_41_0" edges="e_41"/>
  <route id="routee_42_0" edges="e_42"/>
  <route id="routee_43_0" edges="e_43"/>
  <route id="routee_44_0" edges="e_44"/>
  <route id="routee_45_0" edges="e_45"/>
  <route id="routee_46_0" edges="e_46"/>
  <route id="routee_47_0" edges="e_47"/>
  <route id="routee_48_0" edges="e_48"/>
  <route id="routee_49_0" edges="e_49"/>
  <route id="routee_50_0" edges="e_50"/>
  <route id="routee_51_0" edges="e_51"/>
  <route id="routee_52_0" edges="e_52"/>
  <route id="routee_53_0" edges="e_53"/>
  <route id="routee_54_0" edges="e_54"/>
  <route id="routee_55_0" edges="e_55"/>
  <route id="routee_56_0" edges="e_56"/>
  <route id="routee_57_0" edges="e_57"/>
  <route id="routee_58_0" edges="e_58"/>
  <route id="routee_59_0" edges="e_59"/>
  <route id="routee_60_0" edges="e_60"/>
  <route id="routee_61_0" edges="e_61"/>
  <route id="routee_62_0" edges="e_62"/>
  <route id="routee_63_0" edges="e_63"/>
  <route id="routee_64_0" edges="e_64"/>
  <route id="routee_65_0" edges="e_65"/>
  <route id="routee_66_0" edges="e_66"/>
  <route id="routee_67_0" edges="e_67"/>
  <route id="routee_68_0" edges="e_68"/>
  <route id="routee_69_0" edges="e_69"/>
  <route id="routee_70_0" edges="e_70"/>
  <route id="routee_71_0" edges="e_71"/>
  <route id="routee_72_0" edges="e_72"/>
  <route id="routee_73_0" edges="e_73"/>
  <route id="routee_74_0" edges="e_74"/>
  <route id="routee_75_0" edges="e_75"/>
  <route id="routee_76_0" edges="e_76"/>
  <route id="routee_77_0" edges="e_77"/>
  <route id="routee_78_0" edges="e_78"/>
  <route id="routee_79_0" edges="e_79"/>
  <route id="routee_80_0" edges="e_80"/>
  <route id="routee_81_0" edges="e_81"/>
  <route id="routee_82_0" edges="e_82"/>
  <route id="routee_83_0" edges="e_83"/>
  <route id="routee_84_0" edges="e_84"/>
  <route id="routee_85_0" edges="e_85"/>
  <route id="routee_86_0" edges="e_86"/>
  <route id="routee_87_0" edges="e_87"/>
  <route id="routee_88_0" edges="e_88"/>
  <route id="routee_89_0" edges="e_89"/>
  <route id="routee_90_0" edges="e_90"/>
  <route id="routee_91_0" edges="e_91"/>
  <route id="routee_92_0" edges="e_92"/>
  <route id="routee_93_0" edges="e_93"/>
  <route id="routee_94_0" edges="e_94"/>
</routes>
