<?xml version='1.0' encoding='UTF-8'?>
<configuration xmlns:xsi="http://www.w3.org/2001/XMLSchema-instance" xsi:noNamespaceSchemaLocation="http://sumo.dlr.de/xsd/sumoConfiguration.xsd">
  <input>
    <net-file value="minicity_20200317-1938291584445109.9704409.net.xml"/>
    <route-files value="minicity_20200317-1938291584445109.9704409.rou.xml"/>
    <additional-files value="minicity_20200317-1938291584445109.9704409.add.xml"/>
    <gui-settings-file value="minicity_20200317-1938291584445109.9704409.gui.cfg"/>
  </input>
  <time>
    <begin value="0"/>
  </time>
</configuration>
