<?xml version='1.0' encoding='UTF-8'?>
<configuration xmlns:xsi="http://www.w3.org/2001/XMLSchema-instance" xsi:noNamespaceSchemaLocation="http://sumo.dlr.de/xsd/sumoConfiguration.xsd">
  <input>
    <net-file value="minicity_20200317-1944271584445467.5370743.net.xml"/>
    <route-files value="minicity_20200317-1944271584445467.5370743.rou.xml"/>
    <additional-files value="minicity_20200317-1944271584445467.5370743.add.xml"/>
    <gui-settings-file value="minicity_20200317-1944271584445467.5370743.gui.cfg"/>
  </input>
  <time>
    <begin value="0"/>
  </time>
</configuration>
