<?xml version='1.0' encoding='UTF-8'?>
<configuration xmlns:xsi="http://www.w3.org/2001/XMLSchema-instance" xsi:noNamespaceSchemaLocation="http://sumo.dlr.de/xsd/sumoConfiguration.xsd">
  <input>
    <net-file value="ring_20200218-1115501581995750.124054.net.xml"/>
    <route-files value="ring_20200218-1115501581995750.124054.rou.xml"/>
    <additional-files value="ring_20200218-1115501581995750.124054.add.xml"/>
    <gui-settings-file value="ring_20200218-1115501581995750.124054.gui.cfg"/>
  </input>
  <time>
    <begin value="0"/>
  </time>
</configuration>
