<?xml version='1.0' encoding='UTF-8'?>
<configuration xmlns:xsi="http://www.w3.org/2001/XMLSchema-instance" xsi:noNamespaceSchemaLocation="http://sumo.dlr.de/xsd/sumoConfiguration.xsd">
  <input>
    <net-file value="ring_20200316-2128231584365303.3888712.net.xml"/>
    <route-files value="ring_20200316-2128231584365303.3888712.rou.xml"/>
    <additional-files value="ring_20200316-2128231584365303.3888712.add.xml"/>
    <gui-settings-file value="ring_20200316-2128231584365303.3888712.gui.cfg"/>
  </input>
  <time>
    <begin value="0"/>
  </time>
</configuration>
