<?xml version='1.0' encoding='UTF-8'?>
<configuration xmlns:xsi="http://www.w3.org/2001/XMLSchema-instance" xsi:noNamespaceSchemaLocation="http://sumo.dlr.de/xsd/sumoConfiguration.xsd">
  <input>
    <net-file value="ring_20200306-1649511583484591.1519797.net.xml"/>
    <route-files value="ring_20200306-1649511583484591.1519797.rou.xml"/>
    <additional-files value="ring_20200306-1649511583484591.1519797.add.xml"/>
    <gui-settings-file value="ring_20200306-1649511583484591.1519797.gui.cfg"/>
  </input>
  <time>
    <begin value="0"/>
  </time>
</configuration>
