<?xml version='1.0' encoding='UTF-8'?>
<configuration xmlns:xsi="http://www.w3.org/2001/XMLSchema-instance" xsi:noNamespaceSchemaLocation="http://sumo.dlr.de/xsd/sumoConfiguration.xsd">
  <input>
    <net-file value="specifying_network_20200317-0012201584375140.1295516.net.xml"/>
    <route-files value="specifying_network_20200317-0012201584375140.1295516.rou.xml"/>
    <additional-files value="specifying_network_20200317-0012201584375140.1295516.add.xml"/>
    <gui-settings-file value="specifying_network_20200317-0012201584375140.1295516.gui.cfg"/>
  </input>
  <time>
    <begin value="0"/>
  </time>
</configuration>
