<?xml version="1.0" encoding="UTF-8"?>

<!-- generated on Tue Mar 17 00:12:53 2020 by Eclipse SUMO netconvert Version v1_1_0+0000-2147d155b1
<configuration xmlns:xsi="http://www.w3.org/2001/XMLSchema-instance" xsi:noNamespaceSchemaLocation="http://sumo.dlr.de/xsd/netconvertConfiguration.xsd">

    <input>
        <node-files value="/home/ryc/flow/flow/core/kernel/network/debug/net/specifying_network_20200317-0012531584375173.166852.nod.xml"/>
        <edge-files value="/home/ryc/flow/flow/core/kernel/network/debug/net/specifying_network_20200317-0012531584375173.166852.edg.xml"/>
    </input>

    <output>
        <output-file value="/home/ryc/flow/flow/core/kernel/network/debug/cfg/specifying_network_20200317-0012531584375173.166852.net.xml"/>
    </output>

    <junctions>
        <no-internal-links value="false"/>
        <no-turnarounds value="true"/>
    </junctions>

</configuration>
-->

<net version="1.1" junctionCornerDetail="5" limitTurnSpeed="5.50" xmlns:xsi="http://www.w3.org/2001/XMLSchema-instance" xsi:noNamespaceSchemaLocation="http://sumo.dlr.de/xsd/net_file.xsd">

    <location netOffset="40.00,40.00" convBoundary="0.00,0.00,80.00,80.00" origBoundary="-40.00,-40.00,40.00,40.00" projParameter="!"/>

    <edge id=":bottom_0" function="internal">
        <lane id=":bottom_0_0" index="0" speed="30.00" length="0.10" shape="39.97,-1.60 40.03,-1.60"/>
    </edge>
    <edge id=":left_0" function="internal">
        <lane id=":left_0_0" index="0" speed="30.00" length="0.10" shape="-1.60,40.03 -1.60,39.97"/>
    </edge>
    <edge id=":right_0" function="internal">
        <lane id=":right_0_0" index="0" speed="30.00" length="0.10" shape="81.60,39.97 81.60,40.03"/>
    </edge>
    <edge id=":top_0" function="internal">
        <lane id=":top_0_0" index="0" speed="30.00" length="0.10" shape="40.03,81.60 39.97,81.60"/>
    </edge>

    <edge id="edge0" from="bottom" to="right" priority="-1" length="62.83" shape="40.00,0.00 41.61,0.03 43.22,0.13 44.82,0.29 46.42,0.52 48.00,0.81 49.57,1.16 51.13,1.58 52.67,2.06 54.18,2.60 55.68,3.20 57.15,3.86 58.59,4.58 60.00,5.36 61.38,6.19 62.72,7.08 64.03,8.02 65.30,9.02 66.52,10.06 67.71,11.15 68.85,12.29 69.94,13.48 70.98,14.70 71.98,15.97 72.92,17.28 73.81,18.62 74.64,20.00 75.42,21.41 76.14,22.85 76.80,24.32 77.40,25.82 77.94,27.33 78.42,28.87 78.84,30.43 79.19,32.00 79.48,33.58 79.71,35.18 79.87,36.78 79.97,38.39 80.00,40.00">
        <lane id="edge0_0" index="0" speed="30.00" length="62.83" shape="40.03,-1.60 41.67,-1.57 43.35,-1.46 45.01,-1.30 46.68,-1.06 48.32,-0.76 49.95,-0.39 51.58,0.04 53.18,0.54 54.75,1.10 56.30,1.73 57.84,2.41 59.34,3.16 60.80,3.97 62.24,4.84 63.63,5.76 64.99,6.74 66.31,7.78 67.58,8.86 68.82,9.99 70.01,11.18 71.14,12.42 72.22,13.69 73.26,15.01 74.24,16.37 75.16,17.76 76.03,19.20 76.84,20.66 77.59,22.16 78.27,23.70 78.90,25.25 79.46,26.82 79.96,28.42 80.39,30.05 80.76,31.68 81.06,33.32 81.30,34.99 81.46,36.65 81.57,38.33 81.60,39.97"/>
    </edge>
    <edge id="edge1" from="right" to="top" priority="-1" length="62.83" shape="80.00,40.00 79.97,41.61 79.87,43.22 79.71,44.82 79.48,46.42 79.19,48.00 78.84,49.57 78.42,51.13 77.94,52.67 77.40,54.18 76.80,55.68 76.14,57.15 75.42,58.59 74.64,60.00 73.81,61.38 72.92,62.72 71.98,64.03 70.98,65.30 69.94,66.52 68.85,67.71 67.71,68.85 66.52,69.94 65.30,70.98 64.03,71.98 62.72,72.92 61.38,73.81 60.00,74.64 58.59,75.42 57.15,76.14 55.68,76.80 54.18,77.40 52.67,77.94 51.13,78.42 49.57,78.84 48.00,79.19 46.42,79.48 44.82,79.71 43.22,79.87 41.61,79.97 40.00,80.00">
        <lane id="edge1_0" index="0" speed="30.00" length="62.83" shape="81.60,40.03 81.57,41.67 81.46,43.35 81.30,45.01 81.06,46.68 80.76,48.32 80.39,49.95 79.96,51.58 79.46,53.18 78.90,54.75 78.27,56.30 77.59,57.84 76.84,59.34 76.03,60.80 75.16,62.24 74.24,63.63 73.26,64.99 72.22,66.31 71.14,67.58 70.01,68.82 68.82,70.01 67.58,71.14 66.31,72.22 64.99,73.26 63.63,74.24 62.24,75.16 60.80,76.03 59.34,76.84 57.84,77.59 56.30,78.27 54.75,78.90 53.18,79.46 51.58,79.96 49.95,80.39 48.32,80.76 46.68,81.06 45.01,81.30 43.35,81.46 41.67,81.57 40.03,81.60"/>
    </edge>
    <edge id="edge2" from="top" to="left" priority="-1" length="62.83" shape="40.00,80.00 38.39,79.97 36.78,79.87 35.18,79.71 33.58,79.48 32.00,79.19 30.43,78.84 28.87,78.42 27.33,77.94 25.82,77.40 24.32,76.80 22.85,76.14 21.41,75.42 20.00,74.64 18.62,73.81 17.28,72.92 15.97,71.98 14.70,70.98 13.48,69.94 12.29,68.85 11.15,67.71 10.06,66.52 9.02,65.30 8.02,64.03 7.08,62.72 6.19,61.38 5.36,60.00 4.58,58.59 3.86,57.15 3.20,55.68 2.60,54.18 2.06,52.67 1.58,51.13 1.16,49.57 0.81,48.00 0.52,46.42 0.29,44.82 0.13,43.22 0.03,41.61 0.00,40.00">
        <lane id="edge2_0" index="0" speed="30.00" length="62.83" shape="39.97,81.60 38.33,81.57 36.65,81.46 34.99,81.30 33.32,81.06 31.68,80.76 30.05,80.39 28.42,79.96 26.82,79.46 25.25,78.90 23.70,78.27 22.16,77.59 20.66,76.84 19.20,76.03 17.76,75.16 16.37,74.24 15.01,73.26 13.69,72.22 12.42,71.14 11.18,70.01 9.99,68.82 8.86,67.58 7.78,66.31 6.74,64.99 5.76,63.63 4.84,62.24 3.97,60.80 3.16,59.34 2.41,57.84 1.73,56.30 1.10,54.75 0.54,53.18 0.04,51.58 -0.39,49.95 -0.76,48.32 -1.06,46.68 -1.30,45.01 -1.46,43.35 -1.57,41.67 -1.60,40.03"/>
    </edge>
    <edge id="edge3" from="left" to="bottom" priority="-1" length="62.83" shape="0.00,40.00 0.03,38.39 0.13,36.78 0.29,35.18 0.52,33.58 0.81,32.00 1.16,30.43 1.58,28.87 2.06,27.33 2.60,25.82 3.20,24.32 3.86,22.85 4.58,21.41 5.36,20.00 6.19,18.62 7.08,17.28 8.02,15.97 9.02,14.70 10.06,13.48 11.15,12.29 12.29,11.15 13.48,10.06 14.70,9.02 15.97,8.02 17.28,7.08 18.62,6.19 20.00,5.36 21.41,4.58 22.85,3.86 24.32,3.20 25.82,2.60 27.33,2.06 28.87,1.58 30.43,1.16 32.00,0.81 33.58,0.52 35.18,0.29 36.78,0.13 38.39,0.03 40.00,0.00">
        <lane id="edge3_0" index="0" speed="30.00" length="62.83" shape="-1.60,39.97 -1.57,38.33 -1.46,36.65 -1.30,34.99 -1.06,33.32 -0.76,31.68 -0.39,30.05 0.04,28.42 0.54,26.82 1.10,25.25 1.73,23.70 2.41,22.16 3.16,20.66 3.97,19.20 4.84,17.76 5.76,16.37 6.74,15.01 7.78,13.69 8.86,12.42 9.99,11.18 11.18,9.99 12.42,8.86 13.69,7.78 15.01,6.74 16.37,5.76 17.76,4.84 19.20,3.97 20.66,3.16 22.16,2.41 23.70,1.73 25.25,1.10 26.82,0.54 28.42,0.04 30.05,-0.39 31.68,-0.76 33.32,-1.06 34.99,-1.30 36.65,-1.46 38.33,-1.57 39.97,-1.60"/>
    </edge>

    <junction id="bottom" type="priority" x="40.00" y="0.00" incLanes="edge3_0" intLanes=":bottom_0_0" shape="40.09,0.00 40.15,-3.20 39.85,-3.20 39.91,0.00">
        <request index="0" response="0" foes="0" cont="0"/>
    </junction>
    <junction id="left" type="priority" x="0.00" y="40.00" incLanes="edge2_0" intLanes=":left_0_0" shape="-3.20,40.15 0.00,40.09 0.00,39.91 -3.20,39.85">
        <request index="0" response="0" foes="0" cont="0"/>
    </junction>
    <junction id="right" type="priority" x="80.00" y="40.00" incLanes="edge0_0" intLanes=":right_0_0" shape="83.20,39.85 80.00,39.91 80.00,40.09 83.20,40.15">
        <request index="0" response="0" foes="0" cont="0"/>
    </junction>
    <junction id="top" type="priority" x="40.00" y="80.00" incLanes="edge1_0" intLanes=":top_0_0" shape="40.15,83.20 40.09,80.00 39.91,80.00 39.85,83.20">
        <request index="0" response="0" foes="0" cont="0"/>
    </junction>

    <connection from="edge0" to="edge1" fromLane="0" toLane="0" via=":right_0_0" dir="s" state="M"/>
    <connection from="edge1" to="edge2" fromLane="0" toLane="0" via=":top_0_0" dir="s" state="M"/>
    <connection from="edge2" to="edge3" fromLane="0" toLane="0" via=":left_0_0" dir="s" state="M"/>
    <connection from="edge3" to="edge0" fromLane="0" toLane="0" via=":bottom_0_0" dir="s" state="M"/>

    <connection from=":bottom_0" to="edge0" fromLane="0" toLane="0" dir="s" state="M"/>
    <connection from=":left_0" to="edge3" fromLane="0" toLane="0" dir="s" state="M"/>
    <connection from=":right_0" to="edge1" fromLane="0" toLane="0" dir="s" state="M"/>
    <connection from=":top_0" to="edge2" fromLane="0" toLane="0" dir="s" state="M"/>

</net>
