<?xml version='1.0' encoding='UTF-8'?>
<configuration xmlns:xsi="http://www.w3.org/2001/XMLSchema-instance" xsi:noNamespaceSchemaLocation="http://sumo.dlr.de/xsd/sumoConfiguration.xsd">
  <input>
    <net-file value="stabilizing_the_ring_20200218-1257071582001827.840036.net.xml"/>
    <route-files value="stabilizing_the_ring_20200218-1257071582001827.840036.rou.xml"/>
    <additional-files value="stabilizing_the_ring_20200218-1257071582001827.840036.add.xml"/>
    <gui-settings-file value="stabilizing_the_ring_20200218-1257071582001827.840036.gui.cfg"/>
  </input>
  <time>
    <begin value="0"/>
  </time>
</configuration>
