<?xml version="1.0" encoding="UTF-8"?>

<!-- generated on Tue Feb 18 13:44:33 2020 by Eclipse SUMO netconvert Version v1_1_0+0000-2147d155b1
<configuration xmlns:xsi="http://www.w3.org/2001/XMLSchema-instance" xsi:noNamespaceSchemaLocation="http://sumo.dlr.de/xsd/netconvertConfiguration.xsd">

    <input>
        <node-files value="/home/ryc/flow/flow/core/kernel/network/debug/net/stabilizing_the_ring_20200218-1344331582004673.1949174.nod.xml"/>
        <edge-files value="/home/ryc/flow/flow/core/kernel/network/debug/net/stabilizing_the_ring_20200218-1344331582004673.1949174.edg.xml"/>
        <type-files value="/home/ryc/flow/flow/core/kernel/network/debug/net/stabilizing_the_ring_20200218-1344331582004673.1949174.typ.xml"/>
    </input>

    <output>
        <output-file value="/home/ryc/flow/flow/core/kernel/network/debug/cfg/stabilizing_the_ring_20200218-1344331582004673.1949174.net.xml"/>
    </output>

    <junctions>
        <no-internal-links value="false"/>
        <no-turnarounds value="true"/>
    </junctions>

</configuration>
-->

<net version="1.1" junctionCornerDetail="5" limitTurnSpeed="5.50" xmlns:xsi="http://www.w3.org/2001/XMLSchema-instance" xsi:noNamespaceSchemaLocation="http://sumo.dlr.de/xsd/net_file.xsd">

    <location netOffset="42.34,42.34" convBoundary="0.00,0.00,84.68,84.68" origBoundary="-42.34,-42.34,42.34,42.34" projParameter="!"/>

    <type id="edgeType" numLanes="1" speed="30.00"/>

    <edge id=":bottom_0" function="internal">
        <lane id=":bottom_0_0" index="0" speed="30.00" length="0.10" shape="42.30,-1.60 42.38,-1.60"/>
    </edge>
    <edge id=":left_0" function="internal">
        <lane id=":left_0_0" index="0" speed="30.00" length="0.10" shape="-1.60,42.38 -1.60,42.30"/>
    </edge>
    <edge id=":right_0" function="internal">
        <lane id=":right_0_0" index="0" speed="30.00" length="0.10" shape="86.28,42.30 86.28,42.38"/>
    </edge>
    <edge id=":top_0" function="internal">
        <lane id=":top_0_0" index="0" speed="30.00" length="0.10" shape="42.38,86.28 42.30,86.28"/>
    </edge>

    <edge id="bottom" from="bottom" to="right" priority="-1" type="edgeType" length="66.50" shape="42.34,0.00 44.04,0.04 45.75,0.14 47.44,0.31 49.13,0.55 50.81,0.86 52.47,1.23 54.12,1.68 55.75,2.18 57.35,2.76 58.93,3.39 60.49,4.09 62.01,4.85 63.51,5.68 64.97,6.56 66.39,7.50 67.77,8.50 69.11,9.55 70.41,10.65 71.67,11.81 72.87,13.01 74.03,14.27 75.13,15.57 76.18,16.91 77.18,18.29 78.12,19.71 79.00,21.17 79.83,22.67 80.59,24.19 81.29,25.75 81.92,27.33 82.50,28.93 83.00,30.56 83.45,32.21 83.82,33.87 84.13,35.55 84.37,37.24 84.54,38.93 84.64,40.64 84.68,42.34">
        <lane id="bottom_0" index="0" speed="30.00" length="66.50" shape="42.38,-1.60 44.11,-1.56 45.88,-1.45 47.63,-1.28 49.39,-1.03 51.13,-0.71 52.85,-0.32 54.57,0.14 56.26,0.66 57.92,1.26 59.55,1.92 61.18,2.64 62.76,3.43 64.31,4.29 65.82,5.21 67.30,6.18 68.73,7.22 70.12,8.31 71.47,9.45 72.78,10.66 74.02,11.90 75.23,13.21 76.37,14.56 77.46,15.95 78.50,17.38 79.47,18.86 80.39,20.37 81.25,21.92 82.04,23.50 82.76,25.13 83.42,26.76 84.02,28.42 84.54,30.11 85.00,31.83 85.39,33.55 85.71,35.29 85.96,37.05 86.13,38.80 86.24,40.57 86.28,42.30"/>
    </edge>
    <edge id="left" from="left" to="bottom" priority="-1" type="edgeType" length="66.50" shape="0.00,42.34 0.04,40.64 0.14,38.93 0.31,37.24 0.55,35.55 0.86,33.87 1.23,32.21 1.68,30.56 2.18,28.93 2.76,27.33 3.39,25.75 4.09,24.19 4.85,22.67 5.68,21.17 6.56,19.71 7.50,18.29 8.50,16.91 9.55,15.57 10.65,14.27 11.81,13.01 13.01,11.81 14.27,10.65 15.57,9.55 16.91,8.50 18.29,7.50 19.71,6.56 21.17,5.68 22.67,4.85 24.19,4.09 25.75,3.39 27.33,2.76 28.93,2.18 30.56,1.68 32.21,1.23 33.87,0.86 35.55,0.55 37.24,0.31 38.93,0.14 40.64,0.04 42.34,0.00">
        <lane id="left_0" index="0" speed="30.00" length="66.50" shape="-1.60,42.30 -1.56,40.57 -1.45,38.80 -1.28,37.05 -1.03,35.29 -0.71,33.55 -0.32,31.83 0.14,30.11 0.66,28.42 1.26,26.76 1.92,25.13 2.64,23.50 3.43,21.92 4.29,20.37 5.21,18.86 6.18,17.38 7.22,15.95 8.31,14.56 9.45,13.21 10.66,11.90 11.90,10.66 13.21,9.45 14.56,8.31 15.95,7.22 17.38,6.18 18.86,5.21 20.37,4.29 21.92,3.43 23.50,2.64 25.13,1.92 26.76,1.26 28.42,0.66 30.11,0.14 31.83,-0.32 33.55,-0.71 35.29,-1.03 37.05,-1.28 38.80,-1.45 40.57,-1.56 42.30,-1.60"/>
    </edge>
    <edge id="right" from="right" to="top" priority="-1" type="edgeType" length="66.50" shape="84.68,42.34 84.64,44.04 84.54,45.75 84.37,47.44 84.13,49.13 83.82,50.81 83.45,52.47 83.00,54.12 82.50,55.75 81.92,57.35 81.29,58.93 80.59,60.49 79.83,62.01 79.00,63.51 78.12,64.97 77.18,66.39 76.18,67.77 75.13,69.11 74.03,70.41 72.87,71.67 71.67,72.87 70.41,74.03 69.11,75.13 67.77,76.18 66.39,77.18 64.97,78.12 63.51,79.00 62.01,79.83 60.49,80.59 58.93,81.29 57.35,81.92 55.75,82.50 54.12,83.00 52.47,83.45 50.81,83.82 49.13,84.13 47.44,84.37 45.75,84.54 44.04,84.64 42.34,84.68">
        <lane id="right_0" index="0" speed="30.00" length="66.50" shape="86.28,42.38 86.24,44.11 86.13,45.88 85.96,47.63 85.71,49.39 85.39,51.13 85.00,52.85 84.54,54.57 84.02,56.26 83.42,57.92 82.76,59.55 82.04,61.18 81.25,62.76 80.39,64.31 79.47,65.82 78.50,67.30 77.46,68.73 76.37,70.12 75.23,71.47 74.02,72.78 72.78,74.02 71.47,75.23 70.12,76.37 68.73,77.46 67.30,78.50 65.82,79.47 64.31,80.39 62.76,81.25 61.18,82.04 59.55,82.76 57.92,83.42 56.26,84.02 54.57,84.54 52.85,85.00 51.13,85.39 49.39,85.71 47.63,85.96 45.88,86.13 44.11,86.24 42.38,86.28"/>
    </edge>
    <edge id="top" from="top" to="left" priority="-1" type="edgeType" length="66.50" shape="42.34,84.68 40.64,84.64 38.93,84.54 37.24,84.37 35.55,84.13 33.87,83.82 32.21,83.45 30.56,83.00 28.93,82.50 27.33,81.92 25.75,81.29 24.19,80.59 22.67,79.83 21.17,79.00 19.71,78.12 18.29,77.18 16.91,76.18 15.57,75.13 14.27,74.03 13.01,72.87 11.81,71.67 10.65,70.41 9.55,69.11 8.50,67.77 7.50,66.39 6.56,64.97 5.68,63.51 4.85,62.01 4.09,60.49 3.39,58.93 2.76,57.35 2.18,55.75 1.68,54.12 1.23,52.47 0.86,50.81 0.55,49.13 0.31,47.44 0.14,45.75 0.04,44.04 0.00,42.34">
        <lane id="top_0" index="0" speed="30.00" length="66.50" shape="42.30,86.28 40.57,86.24 38.80,86.13 37.05,85.96 35.29,85.71 33.55,85.39 31.83,85.00 30.11,84.54 28.42,84.02 26.76,83.42 25.13,82.76 23.50,82.04 21.92,81.25 20.37,80.39 18.86,79.47 17.38,78.50 15.95,77.46 14.56,76.37 13.21,75.23 11.90,74.02 10.66,72.78 9.45,71.47 8.31,70.12 7.22,68.73 6.18,67.30 5.21,65.82 4.29,64.31 3.43,62.76 2.64,61.18 1.92,59.55 1.26,57.92 0.66,56.26 0.14,54.57 -0.32,52.85 -0.71,51.13 -1.03,49.39 -1.28,47.63 -1.45,45.88 -1.56,44.11 -1.60,42.38"/>
    </edge>

    <junction id="bottom" type="priority" x="42.34" y="0.00" incLanes="left_0" intLanes=":bottom_0_0" shape="42.40,0.00 42.47,-3.20 42.21,-3.20 42.28,0.00">
        <request index="0" response="0" foes="0" cont="0"/>
    </junction>
    <junction id="left" type="priority" x="0.00" y="42.34" incLanes="top_0" intLanes=":left_0_0" shape="-3.20,42.47 0.00,42.40 0.00,42.28 -3.20,42.21">
        <request index="0" response="0" foes="0" cont="0"/>
    </junction>
    <junction id="right" type="priority" x="84.68" y="42.34" incLanes="bottom_0" intLanes=":right_0_0" shape="87.88,42.21 84.68,42.28 84.68,42.40 87.88,42.47">
        <request index="0" response="0" foes="0" cont="0"/>
    </junction>
    <junction id="top" type="priority" x="42.34" y="84.68" incLanes="right_0" intLanes=":top_0_0" shape="42.47,87.88 42.40,84.68 42.28,84.68 42.21,87.88">
        <request index="0" response="0" foes="0" cont="0"/>
    </junction>

    <connection from="bottom" to="right" fromLane="0" toLane="0" via=":right_0_0" dir="s" state="M"/>
    <connection from="left" to="bottom" fromLane="0" toLane="0" via=":bottom_0_0" dir="s" state="M"/>
    <connection from="right" to="top" fromLane="0" toLane="0" via=":top_0_0" dir="s" state="M"/>
    <connection from="top" to="left" fromLane="0" toLane="0" via=":left_0_0" dir="s" state="M"/>

    <connection from=":bottom_0" to="bottom" fromLane="0" toLane="0" dir="s" state="M"/>
    <connection from=":left_0" to="left" fromLane="0" toLane="0" dir="s" state="M"/>
    <connection from=":right_0" to="right" fromLane="0" toLane="0" dir="s" state="M"/>
    <connection from=":top_0" to="top" fromLane="0" toLane="0" dir="s" state="M"/>

</net>
