<?xml version="1.0" encoding="UTF-8"?>

<!-- generated on Tue Feb 18 13:29:45 2020 by Eclipse SUMO netconvert Version v1_1_0+0000-2147d155b1
<configuration xmlns:xsi="http://www.w3.org/2001/XMLSchema-instance" xsi:noNamespaceSchemaLocation="http://sumo.dlr.de/xsd/netconvertConfiguration.xsd">

    <input>
        <node-files value="/home/ryc/flow/flow/core/kernel/network/debug/net/stabilizing_the_ring_20200218-1329451582003785.1372073.nod.xml"/>
        <edge-files value="/home/ryc/flow/flow/core/kernel/network/debug/net/stabilizing_the_ring_20200218-1329451582003785.1372073.edg.xml"/>
        <type-files value="/home/ryc/flow/flow/core/kernel/network/debug/net/stabilizing_the_ring_20200218-1329451582003785.1372073.typ.xml"/>
    </input>

    <output>
        <output-file value="/home/ryc/flow/flow/core/kernel/network/debug/cfg/stabilizing_the_ring_20200218-1329451582003785.1372073.net.xml"/>
    </output>

    <junctions>
        <no-internal-links value="false"/>
        <no-turnarounds value="true"/>
    </junctions>

</configuration>
-->

<net version="1.1" junctionCornerDetail="5" limitTurnSpeed="5.50" xmlns:xsi="http://www.w3.org/2001/XMLSchema-instance" xsi:noNamespaceSchemaLocation="http://sumo.dlr.de/xsd/net_file.xsd">

    <location netOffset="36.45,36.45" convBoundary="0.00,0.00,72.90,72.90" origBoundary="-36.45,-36.45,36.45,36.45" projParameter="!"/>

    <type id="edgeType" numLanes="1" speed="30.00"/>

    <edge id=":bottom_0" function="internal">
        <lane id=":bottom_0_0" index="0" speed="30.00" length="0.10" shape="36.42,-1.60 36.48,-1.60"/>
    </edge>
    <edge id=":left_0" function="internal">
        <lane id=":left_0_0" index="0" speed="30.00" length="0.10" shape="-1.60,36.48 -1.60,36.42"/>
    </edge>
    <edge id=":right_0" function="internal">
        <lane id=":right_0_0" index="0" speed="30.00" length="0.10" shape="74.50,36.42 74.50,36.48"/>
    </edge>
    <edge id=":top_0" function="internal">
        <lane id=":top_0_0" index="0" speed="30.00" length="0.10" shape="36.48,74.50 36.42,74.50"/>
    </edge>

    <edge id="bottom" from="bottom" to="right" priority="-1" type="edgeType" length="57.25" shape="36.45,0.00 37.92,0.03 39.38,0.12 40.84,0.27 42.30,0.48 43.74,0.74 45.17,1.06 46.59,1.44 47.99,1.88 49.37,2.37 50.74,2.92 52.07,3.52 53.39,4.18 54.67,4.89 55.93,5.65 57.15,6.46 58.34,7.31 59.50,8.22 60.62,9.17 61.70,10.16 62.74,11.20 63.73,12.28 64.68,13.40 65.59,14.56 66.44,15.75 67.25,16.97 68.01,18.23 68.72,19.51 69.38,20.83 69.98,22.16 70.53,23.53 71.02,24.91 71.46,26.31 71.84,27.73 72.16,29.16 72.42,30.60 72.63,32.06 72.78,33.52 72.87,34.98 72.90,36.45">
        <lane id="bottom_0" index="0" speed="30.00" length="57.25" shape="36.48,-1.60 37.99,-1.57 39.51,-1.47 41.04,-1.32 42.56,-1.10 44.06,-0.83 45.55,-0.49 47.04,-0.10 48.50,0.36 49.94,0.87 51.37,1.45 52.76,2.08 54.14,2.76 55.47,3.51 56.79,4.30 58.06,5.14 59.30,6.03 60.51,6.98 61.68,7.97 62.81,9.00 63.90,10.09 64.93,11.22 65.92,12.39 66.87,13.60 67.76,14.84 68.60,16.11 69.39,17.43 70.14,18.76 70.82,20.14 71.45,21.53 72.03,22.96 72.54,24.40 73.00,25.86 73.39,27.35 73.73,28.84 74.00,30.34 74.22,31.86 74.37,33.39 74.47,34.91 74.50,36.42"/>
    </edge>
    <edge id="left" from="left" to="bottom" priority="-1" type="edgeType" length="57.25" shape="0.00,36.45 0.03,34.98 0.12,33.52 0.27,32.06 0.48,30.60 0.74,29.16 1.06,27.73 1.44,26.31 1.88,24.91 2.37,23.53 2.92,22.16 3.52,20.83 4.18,19.51 4.89,18.23 5.65,16.97 6.46,15.75 7.31,14.56 8.22,13.40 9.17,12.28 10.16,11.20 11.20,10.16 12.28,9.17 13.40,8.22 14.56,7.31 15.75,6.46 16.97,5.65 18.23,4.89 19.51,4.18 20.83,3.52 22.16,2.92 23.53,2.37 24.91,1.88 26.31,1.44 27.73,1.06 29.16,0.74 30.60,0.48 32.06,0.27 33.52,0.12 34.98,0.03 36.45,0.00">
        <lane id="left_0" index="0" speed="30.00" length="57.25" shape="-1.60,36.42 -1.57,34.91 -1.47,33.39 -1.32,31.86 -1.10,30.34 -0.83,28.84 -0.49,27.35 -0.10,25.86 0.36,24.40 0.87,22.96 1.45,21.53 2.08,20.14 2.76,18.76 3.51,17.43 4.30,16.11 5.14,14.84 6.03,13.60 6.98,12.39 7.97,11.22 9.00,10.09 10.09,9.00 11.22,7.97 12.39,6.98 13.60,6.03 14.84,5.14 16.11,4.30 17.43,3.51 18.76,2.76 20.14,2.08 21.53,1.45 22.96,0.87 24.40,0.36 25.86,-0.10 27.35,-0.49 28.84,-0.83 30.34,-1.10 31.86,-1.32 33.39,-1.47 34.91,-1.57 36.42,-1.60"/>
    </edge>
    <edge id="right" from="right" to="top" priority="-1" type="edgeType" length="57.25" shape="72.90,36.45 72.87,37.92 72.78,39.38 72.63,40.84 72.42,42.30 72.16,43.74 71.84,45.17 71.46,46.59 71.02,47.99 70.53,49.37 69.98,50.74 69.38,52.07 68.72,53.39 68.01,54.67 67.25,55.93 66.44,57.15 65.59,58.34 64.68,59.50 63.73,60.62 62.74,61.70 61.70,62.74 60.62,63.73 59.50,64.68 58.34,65.59 57.15,66.44 55.93,67.25 54.67,68.01 53.39,68.72 52.07,69.38 50.74,69.98 49.37,70.53 47.99,71.02 46.59,71.46 45.17,71.84 43.74,72.16 42.30,72.42 40.84,72.63 39.38,72.78 37.92,72.87 36.45,72.90">
        <lane id="right_0" index="0" speed="30.00" length="57.25" shape="74.50,36.48 74.47,37.99 74.37,39.51 74.22,41.04 74.00,42.56 73.73,44.06 73.39,45.55 73.00,47.04 72.54,48.50 72.03,49.94 71.45,51.37 70.82,52.76 70.14,54.14 69.39,55.47 68.60,56.79 67.76,58.06 66.87,59.30 65.92,60.51 64.93,61.68 63.90,62.81 62.81,63.90 61.68,64.93 60.51,65.92 59.30,66.87 58.06,67.76 56.79,68.60 55.47,69.39 54.14,70.14 52.76,70.82 51.37,71.45 49.94,72.03 48.50,72.54 47.04,73.00 45.55,73.39 44.06,73.73 42.56,74.00 41.04,74.22 39.51,74.37 37.99,74.47 36.48,74.50"/>
    </edge>
    <edge id="top" from="top" to="left" priority="-1" type="edgeType" length="57.25" shape="36.45,72.90 34.98,72.87 33.52,72.78 32.06,72.63 30.60,72.42 29.16,72.16 27.73,71.84 26.31,71.46 24.91,71.02 23.53,70.53 22.16,69.98 20.83,69.38 19.51,68.72 18.23,68.01 16.97,67.25 15.75,66.44 14.56,65.59 13.40,64.68 12.28,63.73 11.20,62.74 10.16,61.70 9.17,60.62 8.22,59.50 7.31,58.34 6.46,57.15 5.65,55.93 4.89,54.67 4.18,53.39 3.52,52.07 2.92,50.74 2.37,49.37 1.88,47.99 1.44,46.59 1.06,45.17 0.74,43.74 0.48,42.30 0.27,40.84 0.12,39.38 0.03,37.92 0.00,36.45">
        <lane id="top_0" index="0" speed="30.00" length="57.25" shape="36.42,74.50 34.91,74.47 33.39,74.37 31.86,74.22 30.34,74.00 28.84,73.73 27.35,73.39 25.86,73.00 24.40,72.54 22.96,72.03 21.53,71.45 20.14,70.82 18.76,70.14 17.43,69.39 16.11,68.60 14.84,67.76 13.60,66.87 12.39,65.92 11.22,64.93 10.09,63.90 9.00,62.81 7.97,61.68 6.98,60.51 6.03,59.30 5.14,58.06 4.30,56.79 3.51,55.47 2.76,54.14 2.08,52.76 1.45,51.37 0.87,49.94 0.36,48.50 -0.10,47.04 -0.49,45.55 -0.83,44.06 -1.10,42.56 -1.32,41.04 -1.47,39.51 -1.57,37.99 -1.60,36.48"/>
    </edge>

    <junction id="bottom" type="priority" x="36.45" y="0.00" incLanes="left_0" intLanes=":bottom_0_0" shape="36.53,0.00 36.59,-3.20 36.31,-3.20 36.37,0.00">
        <request index="0" response="0" foes="0" cont="0"/>
    </junction>
    <junction id="left" type="priority" x="0.00" y="36.45" incLanes="top_0" intLanes=":left_0_0" shape="-3.20,36.59 0.00,36.53 0.00,36.37 -3.20,36.31">
        <request index="0" response="0" foes="0" cont="0"/>
    </junction>
    <junction id="right" type="priority" x="72.90" y="36.45" incLanes="bottom_0" intLanes=":right_0_0" shape="76.10,36.31 72.90,36.37 72.90,36.53 76.10,36.59">
        <request index="0" response="0" foes="0" cont="0"/>
    </junction>
    <junction id="top" type="priority" x="36.45" y="72.90" incLanes="right_0" intLanes=":top_0_0" shape="36.59,76.10 36.53,72.90 36.37,72.90 36.31,76.10">
        <request index="0" response="0" foes="0" cont="0"/>
    </junction>

    <connection from="bottom" to="right" fromLane="0" toLane="0" via=":right_0_0" dir="s" state="M"/>
    <connection from="left" to="bottom" fromLane="0" toLane="0" via=":bottom_0_0" dir="s" state="M"/>
    <connection from="right" to="top" fromLane="0" toLane="0" via=":top_0_0" dir="s" state="M"/>
    <connection from="top" to="left" fromLane="0" toLane="0" via=":left_0_0" dir="s" state="M"/>

    <connection from=":bottom_0" to="bottom" fromLane="0" toLane="0" dir="s" state="M"/>
    <connection from=":left_0" to="left" fromLane="0" toLane="0" dir="s" state="M"/>
    <connection from=":right_0" to="right" fromLane="0" toLane="0" dir="s" state="M"/>
    <connection from=":top_0" to="top" fromLane="0" toLane="0" dir="s" state="M"/>

</net>
