<?xml version="1.0" encoding="UTF-8"?>

<!-- generated on Tue Feb 18 12:35:34 2020 by Eclipse SUMO netconvert Version v1_1_0+0000-2147d155b1
<configuration xmlns:xsi="http://www.w3.org/2001/XMLSchema-instance" xsi:noNamespaceSchemaLocation="http://sumo.dlr.de/xsd/netconvertConfiguration.xsd">

    <input>
        <node-files value="/home/ryc/flow/flow/core/kernel/network/debug/net/stabilizing_the_ring_20200218-1235341582000534.4021523.nod.xml"/>
        <edge-files value="/home/ryc/flow/flow/core/kernel/network/debug/net/stabilizing_the_ring_20200218-1235341582000534.4021523.edg.xml"/>
        <type-files value="/home/ryc/flow/flow/core/kernel/network/debug/net/stabilizing_the_ring_20200218-1235341582000534.4021523.typ.xml"/>
    </input>

    <output>
        <output-file value="/home/ryc/flow/flow/core/kernel/network/debug/cfg/stabilizing_the_ring_20200218-1235341582000534.4021523.net.xml"/>
    </output>

    <junctions>
        <no-internal-links value="false"/>
        <no-turnarounds value="true"/>
    </junctions>

</configuration>
-->

<net version="1.1" junctionCornerDetail="5" limitTurnSpeed="5.50" xmlns:xsi="http://www.w3.org/2001/XMLSchema-instance" xsi:noNamespaceSchemaLocation="http://sumo.dlr.de/xsd/net_file.xsd">

    <location netOffset="41.86,41.86" convBoundary="0.00,0.00,83.72,83.72" origBoundary="-41.86,-41.86,41.86,41.86" projParameter="!"/>

    <type id="edgeType" numLanes="1" speed="30.00"/>

    <edge id=":bottom_0" function="internal">
        <lane id=":bottom_0_0" index="0" speed="30.00" length="0.10" shape="41.82,-1.60 41.90,-1.60"/>
    </edge>
    <edge id=":left_0" function="internal">
        <lane id=":left_0_0" index="0" speed="30.00" length="0.10" shape="-1.60,41.90 -1.60,41.82"/>
    </edge>
    <edge id=":right_0" function="internal">
        <lane id=":right_0_0" index="0" speed="30.00" length="0.10" shape="85.32,41.82 85.32,41.90"/>
    </edge>
    <edge id=":top_0" function="internal">
        <lane id=":top_0_0" index="0" speed="30.00" length="0.10" shape="41.90,85.32 41.82,85.32"/>
    </edge>

    <edge id="bottom" from="bottom" to="right" priority="-1" type="edgeType" length="65.75" shape="41.86,0.00 43.55,0.04 45.23,0.14 46.91,0.31 48.57,0.54 50.23,0.85 51.88,1.22 53.51,1.65 55.12,2.16 56.70,2.72 58.27,3.35 59.80,4.04 61.31,4.80 62.79,5.61 64.23,6.48 65.64,7.41 67.01,8.40 68.33,9.44 69.62,10.53 70.86,11.67 72.05,12.86 73.19,14.10 74.28,15.39 75.32,16.71 76.31,18.08 77.24,19.49 78.11,20.93 78.92,22.41 79.68,23.92 80.37,25.45 81.00,27.02 81.56,28.60 82.07,30.21 82.50,31.84 82.87,33.49 83.18,35.15 83.41,36.81 83.58,38.49 83.68,40.17 83.72,41.86">
        <lane id="bottom_0" index="0" speed="30.00" length="65.75" shape="41.90,-1.60 43.62,-1.56 45.36,-1.45 47.10,-1.28 48.83,-1.04 50.55,-0.72 52.26,-0.33 53.96,0.11 55.63,0.64 57.27,1.22 58.90,1.88 60.49,2.60 62.05,3.38 63.59,4.22 65.08,5.13 66.55,6.09 67.97,7.12 69.34,8.20 70.68,9.33 71.97,10.52 73.20,11.75 74.39,13.04 75.52,14.38 76.60,15.75 77.63,17.17 78.59,18.64 79.50,20.13 80.34,21.67 81.12,23.23 81.84,24.82 82.50,26.45 83.08,28.09 83.61,29.76 84.05,31.46 84.44,33.17 84.76,34.89 85.00,36.62 85.17,38.36 85.28,40.10 85.32,41.82"/>
    </edge>
    <edge id="left" from="left" to="bottom" priority="-1" type="edgeType" length="65.75" shape="0.00,41.86 0.04,40.17 0.14,38.49 0.31,36.81 0.54,35.15 0.85,33.49 1.22,31.84 1.65,30.21 2.16,28.60 2.72,27.02 3.35,25.45 4.04,23.92 4.80,22.41 5.61,20.93 6.48,19.49 7.41,18.08 8.40,16.71 9.44,15.39 10.53,14.10 11.67,12.86 12.86,11.67 14.10,10.53 15.39,9.44 16.71,8.40 18.08,7.41 19.49,6.48 20.93,5.61 22.41,4.80 23.92,4.04 25.45,3.35 27.02,2.72 28.60,2.16 30.21,1.65 31.84,1.22 33.49,0.85 35.15,0.54 36.81,0.31 38.49,0.14 40.17,0.04 41.86,0.00">
        <lane id="left_0" index="0" speed="30.00" length="65.75" shape="-1.60,41.82 -1.56,40.10 -1.45,38.36 -1.28,36.62 -1.04,34.89 -0.72,33.17 -0.33,31.46 0.11,29.76 0.64,28.09 1.22,26.45 1.88,24.82 2.60,23.23 3.38,21.67 4.22,20.13 5.13,18.64 6.09,17.17 7.12,15.75 8.20,14.38 9.33,13.04 10.52,11.75 11.75,10.52 13.04,9.33 14.38,8.20 15.75,7.12 17.17,6.09 18.64,5.13 20.13,4.22 21.67,3.38 23.23,2.60 24.82,1.88 26.45,1.22 28.09,0.64 29.76,0.11 31.46,-0.33 33.17,-0.72 34.89,-1.04 36.62,-1.28 38.36,-1.45 40.10,-1.56 41.82,-1.60"/>
    </edge>
    <edge id="right" from="right" to="top" priority="-1" type="edgeType" length="65.75" shape="83.72,41.86 83.68,43.55 83.58,45.23 83.41,46.91 83.18,48.57 82.87,50.23 82.50,51.88 82.07,53.51 81.56,55.12 81.00,56.70 80.37,58.27 79.68,59.80 78.92,61.31 78.11,62.79 77.24,64.23 76.31,65.64 75.32,67.01 74.28,68.33 73.19,69.62 72.05,70.86 70.86,72.05 69.62,73.19 68.33,74.28 67.01,75.32 65.64,76.31 64.23,77.24 62.79,78.11 61.31,78.92 59.80,79.68 58.27,80.37 56.70,81.00 55.12,81.56 53.51,82.07 51.88,82.50 50.23,82.87 48.57,83.18 46.91,83.41 45.23,83.58 43.55,83.68 41.86,83.72">
        <lane id="right_0" index="0" speed="30.00" length="65.75" shape="85.32,41.90 85.28,43.62 85.17,45.36 85.00,47.10 84.76,48.83 84.44,50.55 84.05,52.26 83.61,53.96 83.08,55.63 82.50,57.27 81.84,58.90 81.12,60.49 80.34,62.05 79.50,63.59 78.59,65.08 77.63,66.55 76.60,67.97 75.52,69.34 74.39,70.68 73.20,71.97 71.97,73.20 70.68,74.39 69.34,75.52 67.97,76.60 66.55,77.63 65.08,78.59 63.59,79.50 62.05,80.34 60.49,81.12 58.90,81.84 57.27,82.50 55.63,83.08 53.96,83.61 52.26,84.05 50.55,84.44 48.83,84.76 47.10,85.00 45.36,85.17 43.62,85.28 41.90,85.32"/>
    </edge>
    <edge id="top" from="top" to="left" priority="-1" type="edgeType" length="65.75" shape="41.86,83.72 40.17,83.68 38.49,83.58 36.81,83.41 35.15,83.18 33.49,82.87 31.84,82.50 30.21,82.07 28.60,81.56 27.02,81.00 25.45,80.37 23.92,79.68 22.41,78.92 20.93,78.11 19.49,77.24 18.08,76.31 16.71,75.32 15.39,74.28 14.10,73.19 12.86,72.05 11.67,70.86 10.53,69.62 9.44,68.33 8.40,67.01 7.41,65.64 6.48,64.23 5.61,62.79 4.80,61.31 4.04,59.80 3.35,58.27 2.72,56.70 2.16,55.12 1.65,53.51 1.22,51.88 0.85,50.23 0.54,48.57 0.31,46.91 0.14,45.23 0.04,43.55 0.00,41.86">
        <lane id="top_0" index="0" speed="30.00" length="65.75" shape="41.82,85.32 40.10,85.28 38.36,85.17 36.62,85.00 34.89,84.76 33.17,84.44 31.46,84.05 29.76,83.61 28.09,83.08 26.45,82.50 24.82,81.84 23.23,81.12 21.67,80.34 20.13,79.50 18.64,78.59 17.17,77.63 15.75,76.60 14.38,75.52 13.04,74.39 11.75,73.20 10.52,71.97 9.33,70.68 8.20,69.34 7.12,67.97 6.09,66.55 5.13,65.08 4.22,63.59 3.38,62.05 2.60,60.49 1.88,58.90 1.22,57.27 0.64,55.63 0.11,53.96 -0.33,52.26 -0.72,50.55 -1.04,48.83 -1.28,47.10 -1.45,45.36 -1.56,43.62 -1.60,41.90"/>
    </edge>

    <junction id="bottom" type="priority" x="41.86" y="0.00" incLanes="left_0" intLanes=":bottom_0_0" shape="41.92,0.00 41.99,-3.20 41.73,-3.20 41.80,0.00">
        <request index="0" response="0" foes="0" cont="0"/>
    </junction>
    <junction id="left" type="priority" x="0.00" y="41.86" incLanes="top_0" intLanes=":left_0_0" shape="-3.20,41.99 0.00,41.92 0.00,41.80 -3.20,41.73">
        <request index="0" response="0" foes="0" cont="0"/>
    </junction>
    <junction id="right" type="priority" x="83.72" y="41.86" incLanes="bottom_0" intLanes=":right_0_0" shape="86.92,41.73 83.72,41.80 83.72,41.92 86.92,41.99">
        <request index="0" response="0" foes="0" cont="0"/>
    </junction>
    <junction id="top" type="priority" x="41.86" y="83.72" incLanes="right_0" intLanes=":top_0_0" shape="41.99,86.92 41.92,83.72 41.80,83.72 41.73,86.92">
        <request index="0" response="0" foes="0" cont="0"/>
    </junction>

    <connection from="bottom" to="right" fromLane="0" toLane="0" via=":right_0_0" dir="s" state="M"/>
    <connection from="left" to="bottom" fromLane="0" toLane="0" via=":bottom_0_0" dir="s" state="M"/>
    <connection from="right" to="top" fromLane="0" toLane="0" via=":top_0_0" dir="s" state="M"/>
    <connection from="top" to="left" fromLane="0" toLane="0" via=":left_0_0" dir="s" state="M"/>

    <connection from=":bottom_0" to="bottom" fromLane="0" toLane="0" dir="s" state="M"/>
    <connection from=":left_0" to="left" fromLane="0" toLane="0" dir="s" state="M"/>
    <connection from=":right_0" to="right" fromLane="0" toLane="0" dir="s" state="M"/>
    <connection from=":top_0" to="top" fromLane="0" toLane="0" dir="s" state="M"/>

</net>
