<?xml version="1.0" encoding="UTF-8"?>

<!-- generated on Tue Feb 18 16:45:40 2020 by Eclipse SUMO netconvert Version v1_1_0+0000-2147d155b1
<configuration xmlns:xsi="http://www.w3.org/2001/XMLSchema-instance" xsi:noNamespaceSchemaLocation="http://sumo.dlr.de/xsd/netconvertConfiguration.xsd">

    <input>
        <node-files value="/home/ryc/flow/flow/core/kernel/network/debug/net/stabilizing_the_ring_20200218-1645401582015540.0795226.nod.xml"/>
        <edge-files value="/home/ryc/flow/flow/core/kernel/network/debug/net/stabilizing_the_ring_20200218-1645401582015540.0795226.edg.xml"/>
        <type-files value="/home/ryc/flow/flow/core/kernel/network/debug/net/stabilizing_the_ring_20200218-1645401582015540.0795226.typ.xml"/>
    </input>

    <output>
        <output-file value="/home/ryc/flow/flow/core/kernel/network/debug/cfg/stabilizing_the_ring_20200218-1645401582015540.0795226.net.xml"/>
    </output>

    <junctions>
        <no-internal-links value="false"/>
        <no-turnarounds value="true"/>
    </junctions>

</configuration>
-->

<net version="1.1" junctionCornerDetail="5" limitTurnSpeed="5.50" xmlns:xsi="http://www.w3.org/2001/XMLSchema-instance" xsi:noNamespaceSchemaLocation="http://sumo.dlr.de/xsd/net_file.xsd">

    <location netOffset="37.40,37.40" convBoundary="0.00,0.00,74.80,74.80" origBoundary="-37.40,-37.40,37.40,37.40" projParameter="!"/>

    <type id="edgeType" numLanes="1" speed="30.00"/>

    <edge id=":bottom_0" function="internal">
        <lane id=":bottom_0_0" index="0" speed="30.00" length="0.10" shape="37.37,-1.60 37.43,-1.60"/>
    </edge>
    <edge id=":left_0" function="internal">
        <lane id=":left_0_0" index="0" speed="30.00" length="0.10" shape="-1.60,37.43 -1.60,37.37"/>
    </edge>
    <edge id=":right_0" function="internal">
        <lane id=":right_0_0" index="0" speed="30.00" length="0.10" shape="76.40,37.37 76.40,37.43"/>
    </edge>
    <edge id=":top_0" function="internal">
        <lane id=":top_0_0" index="0" speed="30.00" length="0.10" shape="37.43,76.40 37.37,76.40"/>
    </edge>

    <edge id="bottom" from="bottom" to="right" priority="-1" type="edgeType" length="58.75" shape="37.40,0.00 38.91,0.03 40.41,0.12 41.91,0.27 43.40,0.48 44.88,0.75 46.35,1.09 47.81,1.48 49.24,1.92 50.66,2.43 52.06,2.99 53.43,3.61 54.78,4.28 56.10,5.01 57.39,5.79 58.65,6.62 59.87,7.50 61.05,8.43 62.20,9.40 63.31,10.43 64.37,11.49 65.40,12.60 66.37,13.75 67.30,14.93 68.18,16.15 69.01,17.41 69.79,18.70 70.52,20.02 71.19,21.37 71.81,22.74 72.37,24.14 72.88,25.56 73.32,26.99 73.71,28.45 74.05,29.92 74.32,31.40 74.53,32.89 74.68,34.39 74.77,35.89 74.80,37.40">
        <lane id="bottom_0" index="0" speed="30.00" length="58.75" shape="37.43,-1.60 38.98,-1.57 40.54,-1.47 42.10,-1.32 43.66,-1.10 45.21,-0.82 46.74,-0.46 48.25,-0.06 49.75,0.40 51.23,0.94 52.69,1.52 54.12,2.17 55.52,2.86 56.90,3.63 58.25,4.44 59.56,5.30 60.83,6.22 62.06,7.19 63.26,8.20 64.42,9.28 65.52,10.38 66.60,11.54 67.61,12.74 68.58,13.97 69.50,15.24 70.36,16.56 71.18,17.90 71.94,19.28 72.64,20.69 73.28,22.11 73.87,23.57 74.40,25.06 74.86,26.55 75.26,28.06 75.62,29.60 75.90,31.15 76.12,32.70 76.28,34.26 76.37,35.83 76.40,37.37"/>
    </edge>
    <edge id="left" from="left" to="bottom" priority="-1" type="edgeType" length="58.75" shape="0.00,37.40 0.03,35.89 0.12,34.39 0.27,32.89 0.48,31.40 0.75,29.92 1.09,28.45 1.48,26.99 1.92,25.56 2.43,24.14 2.99,22.74 3.61,21.37 4.28,20.02 5.01,18.70 5.79,17.41 6.62,16.15 7.50,14.93 8.43,13.75 9.40,12.60 10.43,11.49 11.49,10.43 12.60,9.40 13.75,8.43 14.93,7.50 16.15,6.62 17.41,5.79 18.70,5.01 20.02,4.28 21.37,3.61 22.74,2.99 24.14,2.43 25.56,1.92 26.99,1.48 28.45,1.09 29.92,0.75 31.40,0.48 32.89,0.27 34.39,0.12 35.89,0.03 37.40,0.00">
        <lane id="left_0" index="0" speed="30.00" length="58.75" shape="-1.60,37.37 -1.57,35.83 -1.47,34.26 -1.32,32.70 -1.10,31.15 -0.82,29.60 -0.46,28.06 -0.06,26.55 0.40,25.06 0.94,23.57 1.52,22.11 2.17,20.69 2.86,19.28 3.63,17.90 4.44,16.56 5.30,15.24 6.22,13.97 7.19,12.74 8.20,11.54 9.28,10.38 10.38,9.28 11.54,8.20 12.74,7.19 13.97,6.22 15.24,5.30 16.56,4.44 17.90,3.63 19.28,2.86 20.69,2.17 22.11,1.52 23.57,0.94 25.06,0.40 26.55,-0.06 28.06,-0.46 29.60,-0.82 31.15,-1.10 32.70,-1.32 34.26,-1.47 35.83,-1.57 37.37,-1.60"/>
    </edge>
    <edge id="right" from="right" to="top" priority="-1" type="edgeType" length="58.75" shape="74.80,37.40 74.77,38.91 74.68,40.41 74.53,41.91 74.32,43.40 74.05,44.88 73.71,46.35 73.32,47.81 72.88,49.24 72.37,50.66 71.81,52.06 71.19,53.43 70.52,54.78 69.79,56.10 69.01,57.39 68.18,58.65 67.30,59.87 66.37,61.05 65.40,62.20 64.37,63.31 63.31,64.37 62.20,65.40 61.05,66.37 59.87,67.30 58.65,68.18 57.39,69.01 56.10,69.79 54.78,70.52 53.43,71.19 52.06,71.81 50.66,72.37 49.24,72.88 47.81,73.32 46.35,73.71 44.88,74.05 43.40,74.32 41.91,74.53 40.41,74.68 38.91,74.77 37.40,74.80">
        <lane id="right_0" index="0" speed="30.00" length="58.75" shape="76.40,37.43 76.37,38.98 76.28,40.54 76.12,42.10 75.90,43.66 75.62,45.21 75.26,46.74 74.86,48.25 74.40,49.75 73.87,51.23 73.28,52.69 72.64,54.12 71.94,55.52 71.18,56.90 70.36,58.25 69.50,59.56 68.58,60.83 67.61,62.06 66.60,63.26 65.52,64.42 64.42,65.52 63.26,66.60 62.06,67.61 60.83,68.58 59.56,69.50 58.25,70.36 56.90,71.18 55.52,71.94 54.12,72.64 52.69,73.28 51.23,73.87 49.75,74.40 48.25,74.86 46.74,75.26 45.21,75.62 43.66,75.90 42.10,76.12 40.54,76.28 38.98,76.37 37.43,76.40"/>
    </edge>
    <edge id="top" from="top" to="left" priority="-1" type="edgeType" length="58.75" shape="37.40,74.80 35.89,74.77 34.39,74.68 32.89,74.53 31.40,74.32 29.92,74.05 28.45,73.71 26.99,73.32 25.56,72.88 24.14,72.37 22.74,71.81 21.37,71.19 20.02,70.52 18.70,69.79 17.41,69.01 16.15,68.18 14.93,67.30 13.75,66.37 12.60,65.40 11.49,64.37 10.43,63.31 9.40,62.20 8.43,61.05 7.50,59.87 6.62,58.65 5.79,57.39 5.01,56.10 4.28,54.78 3.61,53.43 2.99,52.06 2.43,50.66 1.92,49.24 1.48,47.81 1.09,46.35 0.75,44.88 0.48,43.40 0.27,41.91 0.12,40.41 0.03,38.91 0.00,37.40">
        <lane id="top_0" index="0" speed="30.00" length="58.75" shape="37.37,76.40 35.83,76.37 34.26,76.28 32.70,76.12 31.15,75.90 29.60,75.62 28.06,75.26 26.55,74.86 25.06,74.40 23.57,73.87 22.11,73.28 20.69,72.64 19.28,71.94 17.90,71.18 16.56,70.36 15.24,69.50 13.97,68.58 12.74,67.61 11.54,66.60 10.38,65.52 9.28,64.42 8.20,63.26 7.19,62.06 6.22,60.83 5.30,59.56 4.44,58.25 3.63,56.90 2.86,55.52 2.17,54.12 1.52,52.69 0.94,51.23 0.40,49.75 -0.06,48.25 -0.46,46.74 -0.82,45.21 -1.10,43.66 -1.32,42.10 -1.47,40.54 -1.57,38.98 -1.60,37.43"/>
    </edge>

    <junction id="bottom" type="priority" x="37.40" y="0.00" incLanes="left_0" intLanes=":bottom_0_0" shape="37.48,0.00 37.54,-3.20 37.26,-3.20 37.32,0.00">
        <request index="0" response="0" foes="0" cont="0"/>
    </junction>
    <junction id="left" type="priority" x="0.00" y="37.40" incLanes="top_0" intLanes=":left_0_0" shape="-3.20,37.54 0.00,37.48 0.00,37.32 -3.20,37.26">
        <request index="0" response="0" foes="0" cont="0"/>
    </junction>
    <junction id="right" type="priority" x="74.80" y="37.40" incLanes="bottom_0" intLanes=":right_0_0" shape="78.00,37.26 74.80,37.32 74.80,37.48 78.00,37.54">
        <request index="0" response="0" foes="0" cont="0"/>
    </junction>
    <junction id="top" type="priority" x="37.40" y="74.80" incLanes="right_0" intLanes=":top_0_0" shape="37.54,78.00 37.48,74.80 37.32,74.80 37.26,78.00">
        <request index="0" response="0" foes="0" cont="0"/>
    </junction>

    <connection from="bottom" to="right" fromLane="0" toLane="0" via=":right_0_0" dir="s" state="M"/>
    <connection from="left" to="bottom" fromLane="0" toLane="0" via=":bottom_0_0" dir="s" state="M"/>
    <connection from="right" to="top" fromLane="0" toLane="0" via=":top_0_0" dir="s" state="M"/>
    <connection from="top" to="left" fromLane="0" toLane="0" via=":left_0_0" dir="s" state="M"/>

    <connection from=":bottom_0" to="bottom" fromLane="0" toLane="0" dir="s" state="M"/>
    <connection from=":left_0" to="left" fromLane="0" toLane="0" dir="s" state="M"/>
    <connection from=":right_0" to="right" fromLane="0" toLane="0" dir="s" state="M"/>
    <connection from=":top_0" to="top" fromLane="0" toLane="0" dir="s" state="M"/>

</net>
