<?xml version="1.0" encoding="UTF-8"?>

<!-- generated on Tue Feb 18 13:53:06 2020 by Eclipse SUMO netconvert Version v1_1_0+0000-2147d155b1
<configuration xmlns:xsi="http://www.w3.org/2001/XMLSchema-instance" xsi:noNamespaceSchemaLocation="http://sumo.dlr.de/xsd/netconvertConfiguration.xsd">

    <input>
        <node-files value="/home/ryc/flow/flow/core/kernel/network/debug/net/stabilizing_the_ring_20200218-1353061582005186.0911455.nod.xml"/>
        <edge-files value="/home/ryc/flow/flow/core/kernel/network/debug/net/stabilizing_the_ring_20200218-1353061582005186.0911455.edg.xml"/>
        <type-files value="/home/ryc/flow/flow/core/kernel/network/debug/net/stabilizing_the_ring_20200218-1353061582005186.0911455.typ.xml"/>
    </input>

    <output>
        <output-file value="/home/ryc/flow/flow/core/kernel/network/debug/cfg/stabilizing_the_ring_20200218-1353061582005186.0911455.net.xml"/>
    </output>

    <junctions>
        <no-internal-links value="false"/>
        <no-turnarounds value="true"/>
    </junctions>

</configuration>
-->

<net version="1.1" junctionCornerDetail="5" limitTurnSpeed="5.50" xmlns:xsi="http://www.w3.org/2001/XMLSchema-instance" xsi:noNamespaceSchemaLocation="http://sumo.dlr.de/xsd/net_file.xsd">

    <location netOffset="40.90,40.90" convBoundary="0.00,0.00,81.81,81.81" origBoundary="-40.90,-40.90,40.90,40.90" projParameter="!"/>

    <type id="edgeType" numLanes="1" speed="30.00"/>

    <edge id=":bottom_0" function="internal">
        <lane id=":bottom_0_0" index="0" speed="30.00" length="0.10" shape="40.87,-1.60 40.93,-1.60"/>
    </edge>
    <edge id=":left_0" function="internal">
        <lane id=":left_0_0" index="0" speed="30.00" length="0.10" shape="-1.60,40.93 -1.60,40.87"/>
    </edge>
    <edge id=":right_0" function="internal">
        <lane id=":right_0_0" index="0" speed="30.00" length="0.10" shape="83.40,40.87 83.40,40.93"/>
    </edge>
    <edge id=":top_0" function="internal">
        <lane id=":top_0_0" index="0" speed="30.00" length="0.10" shape="40.93,83.40 40.87,83.40"/>
    </edge>

    <edge id="bottom" from="bottom" to="right" priority="-1" type="edgeType" length="64.25" shape="40.90,0.00 42.55,0.03 44.19,0.13 45.83,0.30 47.46,0.53 49.08,0.82 50.69,1.19 52.28,1.61 53.85,2.10 55.40,2.66 56.93,3.27 58.43,3.95 59.91,4.68 61.35,5.48 62.76,6.33 64.14,7.24 65.47,8.20 66.77,9.22 68.02,10.28 69.23,11.40 70.40,12.57 71.52,13.78 72.58,15.03 73.60,16.33 74.56,17.66 75.47,19.04 76.32,20.45 77.12,21.89 77.85,23.37 78.53,24.87 79.14,26.40 79.70,27.95 80.19,29.52 80.61,31.11 80.98,32.72 81.27,34.34 81.50,35.97 81.67,37.61 81.77,39.25 81.80,40.90">
        <lane id="bottom_0" index="0" speed="30.00" length="64.25" shape="40.93,-1.60 42.62,-1.57 44.32,-1.46 46.03,-1.29 47.72,-1.05 49.40,-0.74 51.08,-0.36 52.73,0.08 54.36,0.59 55.97,1.17 57.56,1.80 59.12,2.51 60.66,3.27 62.15,4.10 63.62,4.98 65.05,5.93 66.44,6.92 67.78,7.98 69.08,9.09 70.34,10.25 71.56,11.46 72.72,12.72 73.82,14.02 74.88,15.37 75.88,16.75 76.83,18.19 77.71,19.65 78.54,21.15 79.30,22.69 80.00,24.25 80.64,25.83 81.22,27.44 81.73,29.08 82.17,30.73 82.55,32.40 82.85,34.09 83.09,35.78 83.27,37.48 83.37,39.19 83.40,40.87"/>
    </edge>
    <edge id="left" from="left" to="bottom" priority="-1" type="edgeType" length="64.25" shape="0.00,40.90 0.03,39.25 0.13,37.61 0.30,35.97 0.53,34.34 0.82,32.72 1.19,31.11 1.61,29.52 2.10,27.95 2.66,26.40 3.27,24.87 3.95,23.37 4.68,21.89 5.48,20.45 6.33,19.04 7.24,17.66 8.20,16.33 9.22,15.03 10.28,13.78 11.40,12.57 12.57,11.40 13.78,10.28 15.03,9.22 16.33,8.20 17.66,7.24 19.04,6.33 20.45,5.48 21.89,4.68 23.37,3.95 24.87,3.27 26.40,2.66 27.95,2.10 29.52,1.61 31.11,1.19 32.72,0.82 34.34,0.53 35.97,0.30 37.61,0.13 39.25,0.03 40.90,0.00">
        <lane id="left_0" index="0" speed="30.00" length="64.25" shape="-1.60,40.87 -1.57,39.19 -1.46,37.48 -1.29,35.78 -1.05,34.09 -0.74,32.40 -0.36,30.73 0.08,29.08 0.59,27.44 1.17,25.83 1.80,24.25 2.51,22.69 3.27,21.15 4.10,19.65 4.98,18.19 5.93,16.75 6.92,15.37 7.98,14.02 9.09,12.72 10.25,11.46 11.46,10.25 12.72,9.09 14.02,7.98 15.37,6.92 16.75,5.93 18.19,4.98 19.65,4.10 21.15,3.27 22.69,2.51 24.25,1.80 25.83,1.17 27.44,0.59 29.08,0.08 30.73,-0.36 32.40,-0.74 34.09,-1.05 35.78,-1.29 37.48,-1.46 39.19,-1.57 40.87,-1.60"/>
    </edge>
    <edge id="right" from="right" to="top" priority="-1" type="edgeType" length="64.25" shape="81.80,40.90 81.77,42.55 81.67,44.19 81.50,45.83 81.27,47.46 80.98,49.08 80.61,50.69 80.19,52.28 79.70,53.85 79.14,55.40 78.53,56.93 77.85,58.43 77.12,59.91 76.32,61.35 75.47,62.76 74.56,64.14 73.60,65.47 72.58,66.77 71.52,68.02 70.40,69.23 69.23,70.40 68.02,71.52 66.77,72.58 65.47,73.60 64.14,74.56 62.76,75.47 61.35,76.32 59.91,77.12 58.43,77.85 56.93,78.53 55.40,79.14 53.85,79.70 52.28,80.19 50.69,80.61 49.08,80.98 47.46,81.27 45.83,81.50 44.19,81.67 42.55,81.77 40.90,81.80">
        <lane id="right_0" index="0" speed="30.00" length="64.25" shape="83.40,40.93 83.37,42.62 83.27,44.32 83.09,46.03 82.85,47.72 82.55,49.40 82.17,51.08 81.73,52.73 81.22,54.36 80.64,55.97 80.00,57.56 79.30,59.12 78.54,60.66 77.71,62.15 76.83,63.62 75.88,65.05 74.88,66.44 73.82,67.78 72.72,69.08 71.56,70.34 70.34,71.56 69.08,72.72 67.78,73.82 66.44,74.88 65.05,75.88 63.62,76.83 62.15,77.71 60.66,78.54 59.12,79.30 57.56,80.00 55.97,80.64 54.36,81.22 52.73,81.73 51.08,82.17 49.40,82.55 47.72,82.85 46.03,83.09 44.32,83.27 42.62,83.37 40.93,83.40"/>
    </edge>
    <edge id="top" from="top" to="left" priority="-1" type="edgeType" length="64.25" shape="40.90,81.80 39.25,81.77 37.61,81.67 35.97,81.50 34.34,81.27 32.72,80.98 31.11,80.61 29.52,80.19 27.95,79.70 26.40,79.14 24.87,78.53 23.37,77.85 21.89,77.12 20.45,76.32 19.04,75.47 17.66,74.56 16.33,73.60 15.03,72.58 13.78,71.52 12.57,70.40 11.40,69.23 10.28,68.02 9.22,66.77 8.20,65.47 7.24,64.14 6.33,62.76 5.48,61.35 4.68,59.91 3.95,58.43 3.27,56.93 2.66,55.40 2.10,53.85 1.61,52.28 1.19,50.69 0.82,49.08 0.53,47.46 0.30,45.83 0.13,44.19 0.03,42.55 0.00,40.90">
        <lane id="top_0" index="0" speed="30.00" length="64.25" shape="40.87,83.40 39.19,83.37 37.48,83.27 35.78,83.09 34.09,82.85 32.40,82.55 30.73,82.17 29.08,81.73 27.44,81.22 25.83,80.64 24.25,80.00 22.69,79.30 21.15,78.54 19.65,77.71 18.19,76.83 16.75,75.88 15.37,74.88 14.02,73.82 12.72,72.72 11.46,71.56 10.25,70.34 9.09,69.08 7.98,67.78 6.92,66.44 5.93,65.05 4.98,63.62 4.10,62.15 3.27,60.66 2.51,59.12 1.80,57.56 1.17,55.97 0.59,54.36 0.08,52.73 -0.36,51.08 -0.74,49.40 -1.05,47.72 -1.29,46.03 -1.46,44.32 -1.57,42.62 -1.60,40.93"/>
    </edge>

    <junction id="bottom" type="priority" x="40.90" y="0.00" incLanes="left_0" intLanes=":bottom_0_0" shape="40.99,0.00 41.05,-3.20 40.76,-3.20 40.82,0.00">
        <request index="0" response="0" foes="0" cont="0"/>
    </junction>
    <junction id="left" type="priority" x="0.00" y="40.90" incLanes="top_0" intLanes=":left_0_0" shape="-3.20,41.05 0.00,40.99 0.00,40.82 -3.20,40.76">
        <request index="0" response="0" foes="0" cont="0"/>
    </junction>
    <junction id="right" type="priority" x="81.81" y="40.90" incLanes="bottom_0" intLanes=":right_0_0" shape="85.00,40.76 81.80,40.82 81.80,40.99 85.00,41.05">
        <request index="0" response="0" foes="0" cont="0"/>
    </junction>
    <junction id="top" type="priority" x="40.90" y="81.81" incLanes="right_0" intLanes=":top_0_0" shape="41.05,85.00 40.99,81.80 40.82,81.80 40.76,85.00">
        <request index="0" response="0" foes="0" cont="0"/>
    </junction>

    <connection from="bottom" to="right" fromLane="0" toLane="0" via=":right_0_0" dir="s" state="M"/>
    <connection from="left" to="bottom" fromLane="0" toLane="0" via=":bottom_0_0" dir="s" state="M"/>
    <connection from="right" to="top" fromLane="0" toLane="0" via=":top_0_0" dir="s" state="M"/>
    <connection from="top" to="left" fromLane="0" toLane="0" via=":left_0_0" dir="s" state="M"/>

    <connection from=":bottom_0" to="bottom" fromLane="0" toLane="0" dir="s" state="M"/>
    <connection from=":left_0" to="left" fromLane="0" toLane="0" dir="s" state="M"/>
    <connection from=":right_0" to="right" fromLane="0" toLane="0" dir="s" state="M"/>
    <connection from=":top_0" to="top" fromLane="0" toLane="0" dir="s" state="M"/>

</net>
