<?xml version="1.0" encoding="UTF-8"?>

<!-- generated on Tue Feb 18 13:36:54 2020 by Eclipse SUMO netconvert Version v1_1_0+0000-2147d155b1
<configuration xmlns:xsi="http://www.w3.org/2001/XMLSchema-instance" xsi:noNamespaceSchemaLocation="http://sumo.dlr.de/xsd/netconvertConfiguration.xsd">

    <input>
        <node-files value="/home/ryc/flow/flow/core/kernel/network/debug/net/stabilizing_the_ring_20200218-1336541582004214.861756.nod.xml"/>
        <edge-files value="/home/ryc/flow/flow/core/kernel/network/debug/net/stabilizing_the_ring_20200218-1336541582004214.861756.edg.xml"/>
        <type-files value="/home/ryc/flow/flow/core/kernel/network/debug/net/stabilizing_the_ring_20200218-1336541582004214.861756.typ.xml"/>
    </input>

    <output>
        <output-file value="/home/ryc/flow/flow/core/kernel/network/debug/cfg/stabilizing_the_ring_20200218-1336541582004214.861756.net.xml"/>
    </output>

    <junctions>
        <no-internal-links value="false"/>
        <no-turnarounds value="true"/>
    </junctions>

</configuration>
-->

<net version="1.1" junctionCornerDetail="5" limitTurnSpeed="5.50" xmlns:xsi="http://www.w3.org/2001/XMLSchema-instance" xsi:noNamespaceSchemaLocation="http://sumo.dlr.de/xsd/net_file.xsd">

    <location netOffset="41.54,41.54" convBoundary="0.00,0.00,83.08,83.08" origBoundary="-41.54,-41.54,41.54,41.54" projParameter="!"/>

    <type id="edgeType" numLanes="1" speed="30.00"/>

    <edge id=":bottom_0" function="internal">
        <lane id=":bottom_0_0" index="0" speed="30.00" length="0.10" shape="41.51,-1.60 41.57,-1.60"/>
    </edge>
    <edge id=":left_0" function="internal">
        <lane id=":left_0_0" index="0" speed="30.00" length="0.10" shape="-1.60,41.57 -1.60,41.51"/>
    </edge>
    <edge id=":right_0" function="internal">
        <lane id=":right_0_0" index="0" speed="30.00" length="0.10" shape="84.68,41.51 84.68,41.57"/>
    </edge>
    <edge id=":top_0" function="internal">
        <lane id=":top_0_0" index="0" speed="30.00" length="0.10" shape="41.57,84.68 41.51,84.68"/>
    </edge>

    <edge id="bottom" from="bottom" to="right" priority="-1" type="edgeType" length="65.25" shape="41.54,0.00 43.21,0.03 44.88,0.14 46.55,0.30 48.20,0.54 49.85,0.84 51.48,1.21 53.10,1.64 54.69,2.14 56.27,2.70 57.82,3.32 59.35,4.01 60.84,4.76 62.31,5.57 63.74,6.43 65.14,7.35 66.49,8.33 67.81,9.36 69.09,10.45 70.32,11.58 71.50,12.76 72.63,13.99 73.72,15.27 74.75,16.59 75.73,17.94 76.65,19.34 77.51,20.77 78.32,22.24 79.07,23.73 79.76,25.26 80.38,26.81 80.94,28.39 81.44,29.98 81.87,31.60 82.24,33.23 82.54,34.88 82.78,36.53 82.94,38.20 83.05,39.87 83.08,41.54">
        <lane id="bottom_0" index="0" speed="30.00" length="65.25" shape="41.57,-1.60 43.28,-1.57 45.01,-1.45 46.74,-1.29 48.46,-1.04 50.17,-0.73 51.86,-0.34 53.55,0.10 55.20,0.62 56.83,1.20 58.45,1.85 60.04,2.57 61.59,3.34 63.11,4.18 64.59,5.08 66.05,6.03 67.45,7.05 68.82,8.12 70.15,9.25 71.43,10.42 72.66,11.65 73.83,12.93 74.96,14.26 76.03,15.63 77.05,17.03 78.00,18.49 78.90,19.97 79.74,21.49 80.51,23.04 81.23,24.63 81.88,26.25 82.46,27.88 82.98,29.53 83.42,31.22 83.81,32.91 84.12,34.62 84.37,36.34 84.53,38.07 84.65,39.80 84.68,41.51"/>
    </edge>
    <edge id="left" from="left" to="bottom" priority="-1" type="edgeType" length="65.25" shape="0.00,41.54 0.03,39.87 0.14,38.20 0.30,36.53 0.54,34.88 0.84,33.23 1.21,31.60 1.64,29.98 2.14,28.39 2.70,26.81 3.32,25.26 4.01,23.73 4.76,22.24 5.57,20.77 6.43,19.34 7.35,17.94 8.33,16.59 9.36,15.27 10.45,13.99 11.58,12.76 12.76,11.58 13.99,10.45 15.27,9.36 16.59,8.33 17.94,7.35 19.34,6.43 20.77,5.57 22.24,4.76 23.73,4.01 25.26,3.32 26.81,2.70 28.39,2.14 29.98,1.64 31.60,1.21 33.23,0.84 34.88,0.54 36.53,0.30 38.20,0.14 39.87,0.03 41.54,0.00">
        <lane id="left_0" index="0" speed="30.00" length="65.25" shape="-1.60,41.51 -1.57,39.80 -1.45,38.07 -1.29,36.34 -1.04,34.62 -0.73,32.91 -0.34,31.22 0.10,29.53 0.62,27.88 1.20,26.25 1.85,24.63 2.57,23.04 3.34,21.49 4.18,19.97 5.08,18.49 6.03,17.03 7.05,15.63 8.12,14.26 9.25,12.93 10.42,11.65 11.65,10.42 12.93,9.25 14.26,8.12 15.63,7.05 17.03,6.03 18.49,5.08 19.97,4.18 21.49,3.34 23.04,2.57 24.63,1.85 26.25,1.20 27.88,0.62 29.53,0.10 31.22,-0.34 32.91,-0.73 34.62,-1.04 36.34,-1.29 38.07,-1.45 39.80,-1.57 41.51,-1.60"/>
    </edge>
    <edge id="right" from="right" to="top" priority="-1" type="edgeType" length="65.25" shape="83.08,41.54 83.05,43.21 82.94,44.88 82.78,46.55 82.54,48.20 82.24,49.85 81.87,51.48 81.44,53.10 80.94,54.69 80.38,56.27 79.76,57.82 79.07,59.35 78.32,60.84 77.51,62.31 76.65,63.74 75.73,65.14 74.75,66.49 73.72,67.81 72.63,69.09 71.50,70.32 70.32,71.50 69.09,72.63 67.81,73.72 66.49,74.75 65.14,75.73 63.74,76.65 62.31,77.51 60.84,78.32 59.35,79.07 57.82,79.76 56.27,80.38 54.69,80.94 53.10,81.44 51.48,81.87 49.85,82.24 48.20,82.54 46.55,82.78 44.88,82.94 43.21,83.05 41.54,83.08">
        <lane id="right_0" index="0" speed="30.00" length="65.25" shape="84.68,41.57 84.65,43.28 84.53,45.01 84.37,46.74 84.12,48.46 83.81,50.17 83.42,51.86 82.98,53.55 82.46,55.20 81.88,56.83 81.23,58.45 80.51,60.04 79.74,61.59 78.90,63.11 78.00,64.59 77.05,66.05 76.03,67.45 74.96,68.82 73.83,70.15 72.66,71.43 71.43,72.66 70.15,73.83 68.82,74.96 67.45,76.03 66.05,77.05 64.59,78.00 63.11,78.90 61.59,79.74 60.04,80.51 58.45,81.23 56.83,81.88 55.20,82.46 53.55,82.98 51.86,83.42 50.17,83.81 48.46,84.12 46.74,84.37 45.01,84.53 43.28,84.65 41.57,84.68"/>
    </edge>
    <edge id="top" from="top" to="left" priority="-1" type="edgeType" length="65.25" shape="41.54,83.08 39.87,83.05 38.20,82.94 36.53,82.78 34.88,82.54 33.23,82.24 31.60,81.87 29.98,81.44 28.39,80.94 26.81,80.38 25.26,79.76 23.73,79.07 22.24,78.32 20.77,77.51 19.34,76.65 17.94,75.73 16.59,74.75 15.27,73.72 13.99,72.63 12.76,71.50 11.58,70.32 10.45,69.09 9.36,67.81 8.33,66.49 7.35,65.14 6.43,63.74 5.57,62.31 4.76,60.84 4.01,59.35 3.32,57.82 2.70,56.27 2.14,54.69 1.64,53.10 1.21,51.48 0.84,49.85 0.54,48.20 0.30,46.55 0.14,44.88 0.03,43.21 0.00,41.54">
        <lane id="top_0" index="0" speed="30.00" length="65.25" shape="41.51,84.68 39.80,84.65 38.07,84.53 36.34,84.37 34.62,84.12 32.91,83.81 31.22,83.42 29.53,82.98 27.88,82.46 26.25,81.88 24.63,81.23 23.04,80.51 21.49,79.74 19.97,78.90 18.49,78.00 17.03,77.05 15.63,76.03 14.26,74.96 12.93,73.83 11.65,72.66 10.42,71.43 9.25,70.15 8.12,68.82 7.05,67.45 6.03,66.05 5.08,64.59 4.18,63.11 3.34,61.59 2.57,60.04 1.85,58.45 1.20,56.83 0.62,55.20 0.10,53.55 -0.34,51.86 -0.73,50.17 -1.04,48.46 -1.29,46.74 -1.45,45.01 -1.57,43.28 -1.60,41.57"/>
    </edge>

    <junction id="bottom" type="priority" x="41.54" y="0.00" incLanes="left_0" intLanes=":bottom_0_0" shape="41.63,0.00 41.69,-3.20 41.39,-3.20 41.45,0.00">
        <request index="0" response="0" foes="0" cont="0"/>
    </junction>
    <junction id="left" type="priority" x="0.00" y="41.54" incLanes="top_0" intLanes=":left_0_0" shape="-3.20,41.69 0.00,41.63 0.00,41.45 -3.20,41.39">
        <request index="0" response="0" foes="0" cont="0"/>
    </junction>
    <junction id="right" type="priority" x="83.08" y="41.54" incLanes="bottom_0" intLanes=":right_0_0" shape="86.28,41.39 83.08,41.45 83.08,41.63 86.28,41.69">
        <request index="0" response="0" foes="0" cont="0"/>
    </junction>
    <junction id="top" type="priority" x="41.54" y="83.08" incLanes="right_0" intLanes=":top_0_0" shape="41.69,86.28 41.63,83.08 41.45,83.08 41.39,86.28">
        <request index="0" response="0" foes="0" cont="0"/>
    </junction>

    <connection from="bottom" to="right" fromLane="0" toLane="0" via=":right_0_0" dir="s" state="M"/>
    <connection from="left" to="bottom" fromLane="0" toLane="0" via=":bottom_0_0" dir="s" state="M"/>
    <connection from="right" to="top" fromLane="0" toLane="0" via=":top_0_0" dir="s" state="M"/>
    <connection from="top" to="left" fromLane="0" toLane="0" via=":left_0_0" dir="s" state="M"/>

    <connection from=":bottom_0" to="bottom" fromLane="0" toLane="0" dir="s" state="M"/>
    <connection from=":left_0" to="left" fromLane="0" toLane="0" dir="s" state="M"/>
    <connection from=":right_0" to="right" fromLane="0" toLane="0" dir="s" state="M"/>
    <connection from=":top_0" to="top" fromLane="0" toLane="0" dir="s" state="M"/>

</net>
