<?xml version="1.0" encoding="UTF-8"?>

<!-- generated on Tue Feb 25 16:22:54 2020 by Eclipse SUMO netconvert Version v1_1_0+0000-2147d155b1
<configuration xmlns:xsi="http://www.w3.org/2001/XMLSchema-instance" xsi:noNamespaceSchemaLocation="http://sumo.dlr.de/xsd/netconvertConfiguration.xsd">

    <input>
        <node-files value="/home/ryc/flow/flow/core/kernel/network/debug/net/stabilizing_the_ring_20200225-1622541582618974.5569675.nod.xml"/>
        <edge-files value="/home/ryc/flow/flow/core/kernel/network/debug/net/stabilizing_the_ring_20200225-1622541582618974.5569675.edg.xml"/>
        <type-files value="/home/ryc/flow/flow/core/kernel/network/debug/net/stabilizing_the_ring_20200225-1622541582618974.5569675.typ.xml"/>
    </input>

    <output>
        <output-file value="/home/ryc/flow/flow/core/kernel/network/debug/cfg/stabilizing_the_ring_20200225-1622541582618974.5569675.net.xml"/>
    </output>

    <junctions>
        <no-internal-links value="false"/>
        <no-turnarounds value="true"/>
    </junctions>

</configuration>
-->

<net version="1.1" junctionCornerDetail="5" limitTurnSpeed="5.50" xmlns:xsi="http://www.w3.org/2001/XMLSchema-instance" xsi:noNamespaceSchemaLocation="http://sumo.dlr.de/xsd/net_file.xsd">

    <location netOffset="38.83,38.83" convBoundary="0.00,0.00,77.67,77.67" origBoundary="-38.83,-38.83,38.83,38.83" projParameter="!"/>

    <type id="edgeType" numLanes="1" speed="30.00"/>

    <edge id=":bottom_0" function="internal">
        <lane id=":bottom_0_0" index="0" speed="30.00" length="0.10" shape="38.80,-1.60 38.86,-1.60"/>
    </edge>
    <edge id=":left_0" function="internal">
        <lane id=":left_0_0" index="0" speed="30.00" length="0.10" shape="-1.60,38.86 -1.60,38.80"/>
    </edge>
    <edge id=":right_0" function="internal">
        <lane id=":right_0_0" index="0" speed="30.00" length="0.10" shape="79.26,38.80 79.26,38.86"/>
    </edge>
    <edge id=":top_0" function="internal">
        <lane id=":top_0_0" index="0" speed="30.00" length="0.10" shape="38.86,79.26 38.80,79.26"/>
    </edge>

    <edge id="bottom" from="bottom" to="right" priority="-1" type="edgeType" length="61.00" shape="38.83,0.00 40.39,0.03 41.95,0.12 43.51,0.28 45.06,0.50 46.60,0.78 48.12,1.12 49.63,1.53 51.13,1.99 52.60,2.52 54.05,3.10 55.48,3.75 56.88,4.44 58.25,5.20 59.59,6.01 60.89,6.87 62.16,7.78 63.39,8.75 64.58,9.76 65.73,10.82 66.84,11.93 67.90,13.08 68.91,14.27 69.88,15.50 70.79,16.77 71.65,18.07 72.46,19.41 73.22,20.78 73.91,22.18 74.56,23.61 75.14,25.06 75.67,26.53 76.13,28.03 76.54,29.54 76.88,31.06 77.16,32.60 77.38,34.15 77.54,35.71 77.63,37.27 77.66,38.83">
        <lane id="bottom_0" index="0" speed="30.00" length="61.00" shape="38.86,-1.60 40.46,-1.57 42.08,-1.47 43.71,-1.30 45.32,-1.08 46.92,-0.78 48.51,-0.43 50.08,-0.00 51.64,0.48 53.17,1.03 54.68,1.63 56.17,2.31 57.63,3.03 59.06,3.82 60.45,4.66 61.80,5.56 63.13,6.51 64.41,7.52 65.64,8.57 66.84,9.67 68.00,10.83 69.10,12.02 70.15,13.26 71.16,14.54 72.11,15.87 73.01,17.22 73.85,18.61 74.64,20.04 75.36,21.50 76.04,22.99 76.64,24.50 77.19,26.03 77.67,27.59 78.10,29.16 78.45,30.75 78.74,32.35 78.97,33.96 79.14,35.59 79.23,37.21 79.26,38.80"/>
    </edge>
    <edge id="left" from="left" to="bottom" priority="-1" type="edgeType" length="61.00" shape="0.00,38.83 0.03,37.27 0.12,35.71 0.28,34.15 0.50,32.60 0.78,31.06 1.12,29.54 1.53,28.03 1.99,26.53 2.52,25.06 3.10,23.61 3.75,22.18 4.44,20.78 5.20,19.41 6.01,18.07 6.87,16.77 7.78,15.50 8.75,14.27 9.76,13.08 10.82,11.93 11.93,10.82 13.08,9.76 14.27,8.75 15.50,7.78 16.77,6.87 18.07,6.01 19.41,5.20 20.78,4.44 22.18,3.75 23.61,3.10 25.06,2.52 26.53,1.99 28.03,1.53 29.54,1.12 31.06,0.78 32.60,0.50 34.15,0.28 35.71,0.12 37.27,0.03 38.83,0.00">
        <lane id="left_0" index="0" speed="30.00" length="61.00" shape="-1.60,38.80 -1.57,37.21 -1.47,35.59 -1.30,33.96 -1.08,32.35 -0.78,30.75 -0.43,29.16 -0.00,27.59 0.48,26.03 1.03,24.50 1.63,22.99 2.31,21.50 3.03,20.04 3.82,18.61 4.66,17.22 5.56,15.87 6.51,14.54 7.52,13.26 8.57,12.02 9.67,10.83 10.83,9.67 12.02,8.57 13.26,7.52 14.54,6.51 15.87,5.56 17.22,4.66 18.61,3.82 20.04,3.03 21.50,2.31 22.99,1.63 24.50,1.03 26.03,0.48 27.59,-0.00 29.16,-0.43 30.75,-0.78 32.35,-1.08 33.96,-1.30 35.59,-1.47 37.21,-1.57 38.80,-1.60"/>
    </edge>
    <edge id="right" from="right" to="top" priority="-1" type="edgeType" length="61.00" shape="77.66,38.83 77.63,40.39 77.54,41.95 77.38,43.51 77.16,45.06 76.88,46.60 76.54,48.12 76.13,49.63 75.67,51.13 75.14,52.60 74.56,54.05 73.91,55.48 73.22,56.88 72.46,58.25 71.65,59.59 70.79,60.89 69.88,62.16 68.91,63.39 67.90,64.58 66.84,65.73 65.73,66.84 64.58,67.90 63.39,68.91 62.16,69.88 60.89,70.79 59.59,71.65 58.25,72.46 56.88,73.22 55.48,73.91 54.05,74.56 52.60,75.14 51.13,75.67 49.63,76.13 48.12,76.54 46.60,76.88 45.06,77.16 43.51,77.38 41.95,77.54 40.39,77.63 38.83,77.66">
        <lane id="right_0" index="0" speed="30.00" length="61.00" shape="79.26,38.86 79.23,40.46 79.14,42.08 78.97,43.71 78.74,45.32 78.45,46.92 78.10,48.51 77.67,50.08 77.19,51.64 76.64,53.17 76.04,54.68 75.36,56.17 74.64,57.63 73.85,59.06 73.01,60.45 72.11,61.80 71.16,63.13 70.15,64.41 69.10,65.64 68.00,66.84 66.84,68.00 65.64,69.10 64.41,70.15 63.13,71.16 61.80,72.11 60.45,73.01 59.06,73.85 57.63,74.64 56.17,75.36 54.68,76.04 53.17,76.64 51.64,77.19 50.08,77.67 48.51,78.10 46.92,78.45 45.32,78.74 43.71,78.97 42.08,79.14 40.46,79.23 38.86,79.26"/>
    </edge>
    <edge id="top" from="top" to="left" priority="-1" type="edgeType" length="61.00" shape="38.83,77.66 37.27,77.63 35.71,77.54 34.15,77.38 32.60,77.16 31.06,76.88 29.54,76.54 28.03,76.13 26.53,75.67 25.06,75.14 23.61,74.56 22.18,73.91 20.78,73.22 19.41,72.46 18.07,71.65 16.77,70.79 15.50,69.88 14.27,68.91 13.08,67.90 11.93,66.84 10.82,65.73 9.76,64.58 8.75,63.39 7.78,62.16 6.87,60.89 6.01,59.59 5.20,58.25 4.44,56.88 3.75,55.48 3.10,54.05 2.52,52.60 1.99,51.13 1.53,49.63 1.12,48.12 0.78,46.60 0.50,45.06 0.28,43.51 0.12,41.95 0.03,40.39 0.00,38.83">
        <lane id="top_0" index="0" speed="30.00" length="61.00" shape="38.80,79.26 37.21,79.23 35.59,79.14 33.96,78.97 32.35,78.74 30.75,78.45 29.16,78.10 27.59,77.67 26.03,77.19 24.50,76.64 22.99,76.04 21.50,75.36 20.04,74.64 18.61,73.85 17.22,73.01 15.87,72.11 14.54,71.16 13.26,70.15 12.02,69.10 10.83,68.00 9.67,66.84 8.57,65.64 7.52,64.41 6.51,63.13 5.56,61.80 4.66,60.45 3.82,59.06 3.03,57.63 2.31,56.17 1.63,54.68 1.03,53.17 0.48,51.64 -0.00,50.08 -0.43,48.51 -0.78,46.92 -1.08,45.32 -1.30,43.71 -1.47,42.08 -1.57,40.46 -1.60,38.86"/>
    </edge>

    <junction id="bottom" type="priority" x="38.83" y="0.00" incLanes="left_0" intLanes=":bottom_0_0" shape="38.92,0.01 38.98,-3.19 38.69,-3.19 38.75,0.01">
        <request index="0" response="0" foes="0" cont="0"/>
    </junction>
    <junction id="left" type="priority" x="0.00" y="38.83" incLanes="top_0" intLanes=":left_0_0" shape="-3.19,38.98 0.01,38.92 0.01,38.75 -3.19,38.69">
        <request index="0" response="0" foes="0" cont="0"/>
    </junction>
    <junction id="right" type="priority" x="77.67" y="38.83" incLanes="bottom_0" intLanes=":right_0_0" shape="80.86,38.69 77.66,38.75 77.66,38.92 80.86,38.98">
        <request index="0" response="0" foes="0" cont="0"/>
    </junction>
    <junction id="top" type="priority" x="38.83" y="77.67" incLanes="right_0" intLanes=":top_0_0" shape="38.98,80.86 38.92,77.66 38.75,77.66 38.69,80.86">
        <request index="0" response="0" foes="0" cont="0"/>
    </junction>

    <connection from="bottom" to="right" fromLane="0" toLane="0" via=":right_0_0" dir="s" state="M"/>
    <connection from="left" to="bottom" fromLane="0" toLane="0" via=":bottom_0_0" dir="s" state="M"/>
    <connection from="right" to="top" fromLane="0" toLane="0" via=":top_0_0" dir="s" state="M"/>
    <connection from="top" to="left" fromLane="0" toLane="0" via=":left_0_0" dir="s" state="M"/>

    <connection from=":bottom_0" to="bottom" fromLane="0" toLane="0" dir="s" state="M"/>
    <connection from=":left_0" to="left" fromLane="0" toLane="0" dir="s" state="M"/>
    <connection from=":right_0" to="right" fromLane="0" toLane="0" dir="s" state="M"/>
    <connection from=":top_0" to="top" fromLane="0" toLane="0" dir="s" state="M"/>

</net>
