<?xml version="1.0" encoding="UTF-8"?>

<!-- generated on Tue Feb 18 13:17:02 2020 by Eclipse SUMO netconvert Version v1_1_0+0000-2147d155b1
<configuration xmlns:xsi="http://www.w3.org/2001/XMLSchema-instance" xsi:noNamespaceSchemaLocation="http://sumo.dlr.de/xsd/netconvertConfiguration.xsd">

    <input>
        <node-files value="/home/ryc/flow/flow/core/kernel/network/debug/net/stabilizing_the_ring_20200218-1317021582003022.5684273.nod.xml"/>
        <edge-files value="/home/ryc/flow/flow/core/kernel/network/debug/net/stabilizing_the_ring_20200218-1317021582003022.5684273.edg.xml"/>
        <type-files value="/home/ryc/flow/flow/core/kernel/network/debug/net/stabilizing_the_ring_20200218-1317021582003022.5684273.typ.xml"/>
    </input>

    <output>
        <output-file value="/home/ryc/flow/flow/core/kernel/network/debug/cfg/stabilizing_the_ring_20200218-1317021582003022.5684273.net.xml"/>
    </output>

    <junctions>
        <no-internal-links value="false"/>
        <no-turnarounds value="true"/>
    </junctions>

</configuration>
-->

<net version="1.1" junctionCornerDetail="5" limitTurnSpeed="5.50" xmlns:xsi="http://www.w3.org/2001/XMLSchema-instance" xsi:noNamespaceSchemaLocation="http://sumo.dlr.de/xsd/net_file.xsd">

    <location netOffset="41.70,41.70" convBoundary="0.00,0.00,83.40,83.40" origBoundary="-41.70,-41.70,41.70,41.70" projParameter="!"/>

    <type id="edgeType" numLanes="1" speed="30.00"/>

    <edge id=":bottom_0" function="internal">
        <lane id=":bottom_0_0" index="0" speed="30.00" length="0.10" shape="41.66,-1.60 41.74,-1.60"/>
    </edge>
    <edge id=":left_0" function="internal">
        <lane id=":left_0_0" index="0" speed="30.00" length="0.10" shape="-1.60,41.74 -1.60,41.66"/>
    </edge>
    <edge id=":right_0" function="internal">
        <lane id=":right_0_0" index="0" speed="30.00" length="0.10" shape="85.00,41.66 85.00,41.74"/>
    </edge>
    <edge id=":top_0" function="internal">
        <lane id=":top_0_0" index="0" speed="30.00" length="0.10" shape="41.74,85.00 41.66,85.00"/>
    </edge>

    <edge id="bottom" from="bottom" to="right" priority="-1" type="edgeType" length="65.50" shape="41.70,0.00 43.38,0.04 45.06,0.14 46.73,0.31 48.39,0.54 50.04,0.84 51.68,1.21 53.30,1.65 54.90,2.15 56.49,2.71 58.04,3.34 59.58,4.03 61.08,4.78 62.55,5.59 63.99,6.46 65.39,7.38 66.75,8.36 68.07,9.40 69.35,10.49 70.59,11.63 71.77,12.81 72.91,14.05 74.00,15.33 75.04,16.65 76.02,18.01 76.94,19.41 77.81,20.85 78.62,22.32 79.37,23.82 80.06,25.36 80.69,26.91 81.25,28.50 81.75,30.10 82.19,31.72 82.56,33.36 82.86,35.01 83.09,36.67 83.26,38.34 83.36,40.02 83.40,41.70">
        <lane id="bottom_0" index="0" speed="30.00" length="65.50" shape="41.74,-1.60 43.45,-1.56 45.19,-1.45 46.92,-1.28 48.64,-1.04 50.36,-0.73 52.07,-0.34 53.75,0.11 55.40,0.63 57.06,1.21 58.67,1.87 60.26,2.58 61.82,3.36 63.35,4.20 64.84,5.11 66.30,6.06 67.71,7.08 69.08,8.16 70.41,9.29 71.70,10.48 72.92,11.70 74.11,12.99 75.24,14.32 76.32,15.69 77.34,17.10 78.29,18.56 79.20,20.05 80.04,21.58 80.82,23.14 81.53,24.73 82.19,26.34 82.77,28.00 83.29,29.65 83.74,31.33 84.13,33.04 84.44,34.76 84.68,36.48 84.85,38.21 84.96,39.95 85.00,41.66"/>
    </edge>
    <edge id="left" from="left" to="bottom" priority="-1" type="edgeType" length="65.50" shape="0.00,41.70 0.04,40.02 0.14,38.34 0.31,36.67 0.54,35.01 0.84,33.36 1.21,31.72 1.65,30.10 2.15,28.50 2.71,26.91 3.34,25.36 4.03,23.82 4.78,22.32 5.59,20.85 6.46,19.41 7.38,18.01 8.36,16.65 9.40,15.33 10.49,14.05 11.63,12.81 12.81,11.63 14.05,10.49 15.33,9.40 16.65,8.36 18.01,7.38 19.41,6.46 20.85,5.59 22.32,4.78 23.82,4.03 25.36,3.34 26.91,2.71 28.50,2.15 30.10,1.65 31.72,1.21 33.36,0.84 35.01,0.54 36.67,0.31 38.34,0.14 40.02,0.04 41.70,0.00">
        <lane id="left_0" index="0" speed="30.00" length="65.50" shape="-1.60,41.66 -1.56,39.95 -1.45,38.21 -1.28,36.48 -1.04,34.76 -0.73,33.04 -0.34,31.33 0.11,29.65 0.63,28.00 1.21,26.34 1.87,24.73 2.58,23.14 3.36,21.58 4.20,20.05 5.11,18.56 6.06,17.10 7.08,15.69 8.16,14.32 9.29,12.99 10.48,11.70 11.70,10.48 12.99,9.29 14.32,8.16 15.69,7.08 17.10,6.06 18.56,5.11 20.05,4.20 21.58,3.36 23.14,2.58 24.73,1.87 26.34,1.21 28.00,0.63 29.65,0.11 31.33,-0.34 33.04,-0.73 34.76,-1.04 36.48,-1.28 38.21,-1.45 39.95,-1.56 41.66,-1.60"/>
    </edge>
    <edge id="right" from="right" to="top" priority="-1" type="edgeType" length="65.50" shape="83.40,41.70 83.36,43.38 83.26,45.06 83.09,46.73 82.86,48.39 82.56,50.04 82.19,51.68 81.75,53.30 81.25,54.90 80.69,56.49 80.06,58.04 79.37,59.58 78.62,61.08 77.81,62.55 76.94,63.99 76.02,65.39 75.04,66.75 74.00,68.07 72.91,69.35 71.77,70.59 70.59,71.77 69.35,72.91 68.07,74.00 66.75,75.04 65.39,76.02 63.99,76.94 62.55,77.81 61.08,78.62 59.58,79.37 58.04,80.06 56.49,80.69 54.90,81.25 53.30,81.75 51.68,82.19 50.04,82.56 48.39,82.86 46.73,83.09 45.06,83.26 43.38,83.36 41.70,83.40">
        <lane id="right_0" index="0" speed="30.00" length="65.50" shape="85.00,41.74 84.96,43.45 84.85,45.19 84.68,46.92 84.44,48.64 84.13,50.36 83.74,52.07 83.29,53.75 82.77,55.40 82.19,57.06 81.53,58.67 80.82,60.26 80.04,61.82 79.20,63.35 78.29,64.84 77.34,66.30 76.32,67.71 75.24,69.08 74.11,70.41 72.92,71.70 71.70,72.92 70.41,74.11 69.08,75.24 67.71,76.32 66.30,77.34 64.84,78.29 63.35,79.20 61.82,80.04 60.26,80.82 58.67,81.53 57.06,82.19 55.40,82.77 53.75,83.29 52.07,83.74 50.36,84.13 48.64,84.44 46.92,84.68 45.19,84.85 43.45,84.96 41.74,85.00"/>
    </edge>
    <edge id="top" from="top" to="left" priority="-1" type="edgeType" length="65.50" shape="41.70,83.40 40.02,83.36 38.34,83.26 36.67,83.09 35.01,82.86 33.36,82.56 31.72,82.19 30.10,81.75 28.50,81.25 26.91,80.69 25.36,80.06 23.82,79.37 22.32,78.62 20.85,77.81 19.41,76.94 18.01,76.02 16.65,75.04 15.33,74.00 14.05,72.91 12.81,71.77 11.63,70.59 10.49,69.35 9.40,68.07 8.36,66.75 7.38,65.39 6.46,63.99 5.59,62.55 4.78,61.08 4.03,59.58 3.34,58.04 2.71,56.49 2.15,54.90 1.65,53.30 1.21,51.68 0.84,50.04 0.54,48.39 0.31,46.73 0.14,45.06 0.04,43.38 0.00,41.70">
        <lane id="top_0" index="0" speed="30.00" length="65.50" shape="41.66,85.00 39.95,84.96 38.21,84.85 36.48,84.68 34.76,84.44 33.04,84.13 31.33,83.74 29.65,83.29 28.00,82.77 26.34,82.19 24.73,81.53 23.14,80.82 21.58,80.04 20.05,79.20 18.56,78.29 17.10,77.34 15.69,76.32 14.32,75.24 12.99,74.11 11.70,72.92 10.48,71.70 9.29,70.41 8.16,69.08 7.08,67.71 6.06,66.30 5.11,64.84 4.20,63.35 3.36,61.82 2.58,60.26 1.87,58.67 1.21,57.06 0.63,55.40 0.11,53.75 -0.34,52.07 -0.73,50.36 -1.04,48.64 -1.28,46.92 -1.45,45.19 -1.56,43.45 -1.60,41.74"/>
    </edge>

    <junction id="bottom" type="priority" x="41.70" y="0.00" incLanes="left_0" intLanes=":bottom_0_0" shape="41.75,0.00 41.83,-3.20 41.57,-3.20 41.65,0.00">
        <request index="0" response="0" foes="0" cont="0"/>
    </junction>
    <junction id="left" type="priority" x="0.00" y="41.70" incLanes="top_0" intLanes=":left_0_0" shape="-3.20,41.83 0.00,41.75 0.00,41.65 -3.20,41.57">
        <request index="0" response="0" foes="0" cont="0"/>
    </junction>
    <junction id="right" type="priority" x="83.40" y="41.70" incLanes="bottom_0" intLanes=":right_0_0" shape="86.60,41.57 83.40,41.65 83.40,41.75 86.60,41.83">
        <request index="0" response="0" foes="0" cont="0"/>
    </junction>
    <junction id="top" type="priority" x="41.70" y="83.40" incLanes="right_0" intLanes=":top_0_0" shape="41.83,86.60 41.75,83.40 41.65,83.40 41.57,86.60">
        <request index="0" response="0" foes="0" cont="0"/>
    </junction>

    <connection from="bottom" to="right" fromLane="0" toLane="0" via=":right_0_0" dir="s" state="M"/>
    <connection from="left" to="bottom" fromLane="0" toLane="0" via=":bottom_0_0" dir="s" state="M"/>
    <connection from="right" to="top" fromLane="0" toLane="0" via=":top_0_0" dir="s" state="M"/>
    <connection from="top" to="left" fromLane="0" toLane="0" via=":left_0_0" dir="s" state="M"/>

    <connection from=":bottom_0" to="bottom" fromLane="0" toLane="0" dir="s" state="M"/>
    <connection from=":left_0" to="left" fromLane="0" toLane="0" dir="s" state="M"/>
    <connection from=":right_0" to="right" fromLane="0" toLane="0" dir="s" state="M"/>
    <connection from=":top_0" to="top" fromLane="0" toLane="0" dir="s" state="M"/>

</net>
