<?xml version='1.0' encoding='UTF-8'?>
<configuration xmlns:xsi="http://www.w3.org/2001/XMLSchema-instance" xsi:noNamespaceSchemaLocation="http://sumo.dlr.de/xsd/sumoConfiguration.xsd">
  <input>
    <net-file value="stabilizing_the_ring_20200218-1344331582004673.1949174.net.xml"/>
    <route-files value="stabilizing_the_ring_20200218-1344331582004673.1949174.rou.xml"/>
    <additional-files value="stabilizing_the_ring_20200218-1344331582004673.1949174.add.xml"/>
    <gui-settings-file value="stabilizing_the_ring_20200218-1344331582004673.1949174.gui.cfg"/>
  </input>
  <time>
    <begin value="0"/>
  </time>
</configuration>
