<?xml version="1.0" encoding="UTF-8"?>

<!-- generated on Tue Feb 18 13:45:58 2020 by Eclipse SUMO netconvert Version v1_1_0+0000-2147d155b1
<configuration xmlns:xsi="http://www.w3.org/2001/XMLSchema-instance" xsi:noNamespaceSchemaLocation="http://sumo.dlr.de/xsd/netconvertConfiguration.xsd">

    <input>
        <node-files value="/home/ryc/flow/flow/core/kernel/network/debug/net/stabilizing_the_ring_20200218-1345581582004758.6536052.nod.xml"/>
        <edge-files value="/home/ryc/flow/flow/core/kernel/network/debug/net/stabilizing_the_ring_20200218-1345581582004758.6536052.edg.xml"/>
        <type-files value="/home/ryc/flow/flow/core/kernel/network/debug/net/stabilizing_the_ring_20200218-1345581582004758.6536052.typ.xml"/>
    </input>

    <output>
        <output-file value="/home/ryc/flow/flow/core/kernel/network/debug/cfg/stabilizing_the_ring_20200218-1345581582004758.6536052.net.xml"/>
    </output>

    <junctions>
        <no-internal-links value="false"/>
        <no-turnarounds value="true"/>
    </junctions>

</configuration>
-->

<net version="1.1" junctionCornerDetail="5" limitTurnSpeed="5.50" xmlns:xsi="http://www.w3.org/2001/XMLSchema-instance" xsi:noNamespaceSchemaLocation="http://sumo.dlr.de/xsd/net_file.xsd">

    <location netOffset="42.81,42.81" convBoundary="0.00,0.00,85.63,85.63" origBoundary="-42.81,-42.81,42.81,42.81" projParameter="!"/>

    <type id="edgeType" numLanes="1" speed="30.00"/>

    <edge id=":bottom_0" function="internal">
        <lane id=":bottom_0_0" index="0" speed="30.00" length="0.10" shape="42.78,-1.60 42.84,-1.60"/>
    </edge>
    <edge id=":left_0" function="internal">
        <lane id=":left_0_0" index="0" speed="30.00" length="0.10" shape="-1.60,42.84 -1.60,42.78"/>
    </edge>
    <edge id=":right_0" function="internal">
        <lane id=":right_0_0" index="0" speed="30.00" length="0.10" shape="87.22,42.78 87.22,42.84"/>
    </edge>
    <edge id=":top_0" function="internal">
        <lane id=":top_0_0" index="0" speed="30.00" length="0.10" shape="42.84,87.22 42.78,87.22"/>
    </edge>

    <edge id="bottom" from="bottom" to="right" priority="-1" type="edgeType" length="67.25" shape="42.81,0.00 44.53,0.03 46.25,0.14 47.97,0.31 49.68,0.55 51.37,0.86 53.06,1.24 54.72,1.69 56.37,2.20 57.99,2.78 59.59,3.42 61.16,4.13 62.71,4.90 64.22,5.73 65.69,6.63 67.13,7.58 68.53,8.58 69.89,9.65 71.20,10.76 72.47,11.93 73.69,13.15 74.86,14.42 75.97,15.73 77.04,17.09 78.04,18.49 78.99,19.93 79.89,21.40 80.72,22.91 81.49,24.46 82.20,26.03 82.84,27.63 83.42,29.25 83.93,30.90 84.38,32.56 84.76,34.25 85.07,35.94 85.31,37.65 85.48,39.37 85.59,41.09 85.62,42.81">
        <lane id="bottom_0" index="0" speed="30.00" length="67.25" shape="42.84,-1.60 44.60,-1.57 46.38,-1.45 48.16,-1.28 49.94,-1.03 51.69,-0.70 53.45,-0.31 55.17,0.16 56.88,0.68 58.56,1.29 60.22,1.95 61.85,2.69 63.45,3.48 65.03,4.35 66.55,5.28 68.04,6.26 69.49,7.30 70.90,8.41 72.26,9.56 73.58,10.78 74.85,12.04 76.06,13.36 77.21,14.72 78.32,16.13 79.36,17.59 80.34,19.07 81.28,20.60 82.14,22.17 82.94,23.78 83.67,25.41 84.34,27.07 84.94,28.75 85.47,30.46 85.94,32.18 86.33,33.93 86.65,35.69 86.90,37.46 87.08,39.24 87.19,41.03 87.22,42.78"/>
    </edge>
    <edge id="left" from="left" to="bottom" priority="-1" type="edgeType" length="67.25" shape="0.00,42.81 0.03,41.09 0.14,39.37 0.31,37.65 0.55,35.94 0.86,34.25 1.24,32.56 1.69,30.90 2.20,29.25 2.78,27.63 3.42,26.03 4.13,24.46 4.90,22.91 5.73,21.40 6.63,19.93 7.58,18.49 8.58,17.09 9.65,15.73 10.76,14.42 11.93,13.15 13.15,11.93 14.42,10.76 15.73,9.65 17.09,8.58 18.49,7.58 19.93,6.63 21.40,5.73 22.91,4.90 24.46,4.13 26.03,3.42 27.63,2.78 29.25,2.20 30.90,1.69 32.56,1.24 34.25,0.86 35.94,0.55 37.65,0.31 39.37,0.14 41.09,0.03 42.81,0.00">
        <lane id="left_0" index="0" speed="30.00" length="67.25" shape="-1.60,42.78 -1.57,41.03 -1.45,39.24 -1.28,37.46 -1.03,35.69 -0.70,33.93 -0.31,32.18 0.16,30.46 0.68,28.75 1.29,27.07 1.95,25.41 2.69,23.78 3.48,22.17 4.35,20.60 5.28,19.07 6.26,17.59 7.30,16.13 8.41,14.72 9.56,13.36 10.78,12.04 12.04,10.78 13.36,9.56 14.72,8.41 16.13,7.30 17.59,6.26 19.07,5.28 20.60,4.35 22.17,3.48 23.78,2.69 25.41,1.95 27.07,1.29 28.75,0.68 30.46,0.16 32.18,-0.31 33.93,-0.70 35.69,-1.03 37.46,-1.28 39.24,-1.45 41.03,-1.57 42.78,-1.60"/>
    </edge>
    <edge id="right" from="right" to="top" priority="-1" type="edgeType" length="67.25" shape="85.62,42.81 85.59,44.53 85.48,46.25 85.31,47.97 85.07,49.68 84.76,51.37 84.38,53.06 83.93,54.72 83.42,56.37 82.84,57.99 82.20,59.59 81.49,61.16 80.72,62.71 79.89,64.22 78.99,65.69 78.04,67.13 77.04,68.53 75.97,69.89 74.86,71.20 73.69,72.47 72.47,73.69 71.20,74.86 69.89,75.97 68.53,77.04 67.13,78.04 65.69,78.99 64.22,79.89 62.71,80.72 61.16,81.49 59.59,82.20 57.99,82.84 56.37,83.42 54.72,83.93 53.06,84.38 51.37,84.76 49.68,85.07 47.97,85.31 46.25,85.48 44.53,85.59 42.81,85.62">
        <lane id="right_0" index="0" speed="30.00" length="67.25" shape="87.22,42.84 87.19,44.60 87.08,46.38 86.90,48.16 86.65,49.94 86.33,51.69 85.94,53.45 85.47,55.17 84.94,56.88 84.34,58.56 83.67,60.22 82.94,61.85 82.14,63.45 81.28,65.03 80.34,66.55 79.36,68.04 78.32,69.49 77.21,70.90 76.06,72.26 74.85,73.58 73.58,74.85 72.26,76.06 70.90,77.21 69.49,78.32 68.04,79.36 66.55,80.34 65.03,81.28 63.45,82.14 61.85,82.94 60.22,83.67 58.56,84.34 56.88,84.94 55.17,85.47 53.45,85.94 51.69,86.33 49.94,86.65 48.16,86.90 46.38,87.08 44.60,87.19 42.84,87.22"/>
    </edge>
    <edge id="top" from="top" to="left" priority="-1" type="edgeType" length="67.25" shape="42.81,85.62 41.09,85.59 39.37,85.48 37.65,85.31 35.94,85.07 34.25,84.76 32.56,84.38 30.90,83.93 29.25,83.42 27.63,82.84 26.03,82.20 24.46,81.49 22.91,80.72 21.40,79.89 19.93,78.99 18.49,78.04 17.09,77.04 15.73,75.97 14.42,74.86 13.15,73.69 11.93,72.47 10.76,71.20 9.65,69.89 8.58,68.53 7.58,67.13 6.63,65.69 5.73,64.22 4.90,62.71 4.13,61.16 3.42,59.59 2.78,57.99 2.20,56.37 1.69,54.72 1.24,53.06 0.86,51.37 0.55,49.68 0.31,47.97 0.14,46.25 0.03,44.53 0.00,42.81">
        <lane id="top_0" index="0" speed="30.00" length="67.25" shape="42.78,87.22 41.03,87.19 39.24,87.08 37.46,86.90 35.69,86.65 33.93,86.33 32.18,85.94 30.46,85.47 28.75,84.94 27.07,84.34 25.41,83.67 23.78,82.94 22.17,82.14 20.60,81.28 19.07,80.34 17.59,79.36 16.13,78.32 14.72,77.21 13.36,76.06 12.04,74.85 10.78,73.58 9.56,72.26 8.41,70.90 7.30,69.49 6.26,68.04 5.28,66.55 4.35,65.03 3.48,63.45 2.69,61.85 1.95,60.22 1.29,58.56 0.68,56.88 0.16,55.17 -0.31,53.45 -0.70,51.69 -1.03,49.94 -1.28,48.16 -1.45,46.38 -1.57,44.60 -1.60,42.84"/>
    </edge>

    <junction id="bottom" type="priority" x="42.81" y="0.00" incLanes="left_0" intLanes=":bottom_0_0" shape="42.90,0.00 42.96,-3.20 42.66,-3.20 42.72,0.00">
        <request index="0" response="0" foes="0" cont="0"/>
    </junction>
    <junction id="left" type="priority" x="0.00" y="42.81" incLanes="top_0" intLanes=":left_0_0" shape="-3.20,42.96 0.00,42.90 0.00,42.72 -3.20,42.66">
        <request index="0" response="0" foes="0" cont="0"/>
    </junction>
    <junction id="right" type="priority" x="85.63" y="42.81" incLanes="bottom_0" intLanes=":right_0_0" shape="88.82,42.66 85.62,42.72 85.62,42.90 88.82,42.96">
        <request index="0" response="0" foes="0" cont="0"/>
    </junction>
    <junction id="top" type="priority" x="42.81" y="85.63" incLanes="right_0" intLanes=":top_0_0" shape="42.96,88.82 42.90,85.62 42.72,85.62 42.66,88.82">
        <request index="0" response="0" foes="0" cont="0"/>
    </junction>

    <connection from="bottom" to="right" fromLane="0" toLane="0" via=":right_0_0" dir="s" state="M"/>
    <connection from="left" to="bottom" fromLane="0" toLane="0" via=":bottom_0_0" dir="s" state="M"/>
    <connection from="right" to="top" fromLane="0" toLane="0" via=":top_0_0" dir="s" state="M"/>
    <connection from="top" to="left" fromLane="0" toLane="0" via=":left_0_0" dir="s" state="M"/>

    <connection from=":bottom_0" to="bottom" fromLane="0" toLane="0" dir="s" state="M"/>
    <connection from=":left_0" to="left" fromLane="0" toLane="0" dir="s" state="M"/>
    <connection from=":right_0" to="right" fromLane="0" toLane="0" dir="s" state="M"/>
    <connection from=":top_0" to="top" fromLane="0" toLane="0" dir="s" state="M"/>

</net>
