<?xml version='1.0' encoding='UTF-8'?>
<configuration xmlns:xsi="http://www.w3.org/2001/XMLSchema-instance" xsi:noNamespaceSchemaLocation="http://sumo.dlr.de/xsd/sumoConfiguration.xsd">
  <input>
    <net-file value="LuSTScenario/scenario/lust.net.xml"/>
    <route-files value="template_20200303-2103331583240613.8642554.rou.xml"/>
    <additional-files value="template_20200303-2103331583240613.8642554.add.xml"/>
    <gui-settings-file value="template_20200303-2103331583240613.8642554.gui.cfg"/>
  </input>
  <time>
    <begin value="0"/>
  </time>
</configuration>
