<?xml version='1.0' encoding='UTF-8'?>
<configuration xmlns:xsi="http://www.w3.org/2001/XMLSchema-instance" xsi:noNamespaceSchemaLocation="http://sumo.dlr.de/xsd/sumoConfiguration.xsd">
  <input>
    <net-file value="../../LuSTScenario/scenario/lust.net.xml"/>
    <route-files value="template_20200303-2048121583239692.6724658.rou.xml"/>
    <additional-files value="template_20200303-2048121583239692.6724658.add.xml"/>
    <gui-settings-file value="template_20200303-2048121583239692.6724658.gui.cfg"/>
  </input>
  <time>
    <begin value="0"/>
  </time>
</configuration>
