<?xml version='1.0' encoding='UTF-8'?>
<configuration xmlns:xsi="http://www.w3.org/2001/XMLSchema-instance" xsi:noNamespaceSchemaLocation="http://sumo.dlr.de/xsd/sumoConfiguration.xsd">
  <input>
    <net-file value="/home/ryc/flow/RYCs_works/LuSTScenario/scenario/lust.net.xml"/>
    <route-files value="template_20200303-2131361583242296.0938804.rou.xml"/>
    <additional-files value="template_20200303-2131361583242296.0938804.add.xml"/>
    <gui-settings-file value="template_20200303-2131361583242296.0938804.gui.cfg"/>
  </input>
  <time>
    <begin value="0"/>
  </time>
</configuration>
