<?xml version='1.0' encoding='UTF-8'?>
<configuration xmlns:xsi="http://www.w3.org/2001/XMLSchema-instance" xsi:noNamespaceSchemaLocation="http://sumo.dlr.de/xsd/sumoConfiguration.xsd">
  <input>
    <net-file value="traffic_light_grid_20200314-1714581584177298.0215702.net.xml"/>
    <route-files value="traffic_light_grid_20200314-1714581584177298.0215702.rou.xml"/>
    <additional-files value="traffic_light_grid_20200314-1714581584177298.0215702.add.xml"/>
    <gui-settings-file value="traffic_light_grid_20200314-1714581584177298.0215702.gui.cfg"/>
  </input>
  <time>
    <begin value="0"/>
  </time>
</configuration>
