<?xml version='1.0' encoding='UTF-8'?>
<routes xmlns:xsi="http://www.w3.org/2001/XMLSchema-instance" xsi:noNamespaceSchemaLocation="http://sumo.dlr.de/xsd/routes_file.xsd">
  <route id="routebot0_0_0" edges="bot0_0 bot0_1 bot0_2 bot0_3"/>
  <route id="routetop0_3_0" edges="top0_3 top0_2 top0_1 top0_0"/>
  <route id="routebot1_0_0" edges="bot1_0 bot1_1 bot1_2 bot1_3"/>
  <route id="routetop1_3_0" edges="top1_3 top1_2 top1_1 top1_0"/>
  <route id="routebot2_0_0" edges="bot2_0 bot2_1 bot2_2 bot2_3"/>
  <route id="routetop2_3_0" edges="top2_3 top2_2 top2_1 top2_0"/>
  <route id="routeleft3_0_0" edges="left3_0 left2_0 left1_0 left0_0"/>
  <route id="routeright0_0_0" edges="right0_0 right1_0 right2_0 right3_0"/>
  <route id="routeleft3_1_0" edges="left3_1 left2_1 left1_1 left0_1"/>
  <route id="routeright0_1_0" edges="right0_1 right1_1 right2_1 right3_1"/>
  <route id="routeleft3_2_0" edges="left3_2 left2_2 left1_2 left0_2"/>
  <route id="routeright0_2_0" edges="right0_2 right1_2 right2_2 right3_2"/>
</routes>
