<?xml version='1.0' encoding='UTF-8'?>
<configuration xmlns:xsi="http://www.w3.org/2001/XMLSchema-instance" xsi:noNamespaceSchemaLocation="http://sumo.dlr.de/xsd/sumoConfiguration.xsd">
  <input>
    <net-file value="traffic_light_grid_20200314-1716491584177409.4831398.net.xml"/>
    <route-files value="traffic_light_grid_20200314-1716491584177409.4831398.rou.xml"/>
    <additional-files value="traffic_light_grid_20200314-1716491584177409.4831398.add.xml"/>
    <gui-settings-file value="traffic_light_grid_20200314-1716491584177409.4831398.gui.cfg"/>
  </input>
  <time>
    <begin value="0"/>
  </time>
</configuration>
