<?xml version='1.0' encoding='UTF-8'?>
<configuration xmlns:xsi="http://www.w3.org/2001/XMLSchema-instance" xsi:noNamespaceSchemaLocation="http://sumo.dlr.de/xsd/sumoConfiguration.xsd">
  <input>
    <net-file value="training_example_20200225-2125251582637125.542438.net.xml"/>
    <route-files value="training_example_20200225-2125251582637125.542438.rou.xml"/>
    <additional-files value="training_example_20200225-2125251582637125.542438.add.xml"/>
    <gui-settings-file value="training_example_20200225-2125251582637125.542438.gui.cfg"/>
  </input>
  <time>
    <begin value="0"/>
  </time>
</configuration>
