<?xml version='1.0' encoding='UTF-8'?>
<connections xmlns:xsi="http://www.w3.org/2001/XMLSchema-instance" xsi:noNamespaceSchemaLocation="http://sumo.dlr.de/xsd/connections_file.xsd">
  <connection from="bot0_0" to="bot0_1" fromLane="0" toLane="0"/>
  <connection from="top0_1" to="top0_0" fromLane="0" toLane="0"/>
  <connection from="right0_0" to="right1_0" fromLane="0" toLane="0"/>
  <connection from="left1_0" to="left0_0" fromLane="0" toLane="0"/>
  <connection from="bot0_1" to="bot0_2" fromLane="0" toLane="0"/>
  <connection from="top0_2" to="top0_1" fromLane="0" toLane="0"/>
  <connection from="right0_1" to="right1_1" fromLane="0" toLane="0"/>
  <connection from="left1_1" to="left0_1" fromLane="0" toLane="0"/>
  <connection from="bot1_0" to="bot1_1" fromLane="0" toLane="0"/>
  <connection from="top1_1" to="top1_0" fromLane="0" toLane="0"/>
  <connection from="right1_0" to="right2_0" fromLane="0" toLane="0"/>
  <connection from="left2_0" to="left1_0" fromLane="0" toLane="0"/>
  <connection from="bot1_1" to="bot1_2" fromLane="0" toLane="0"/>
  <connection from="top1_2" to="top1_1" fromLane="0" toLane="0"/>
  <connection from="right1_1" to="right2_1" fromLane="0" toLane="0"/>
  <connection from="left2_1" to="left1_1" fromLane="0" toLane="0"/>
</connections>
