<?xml version='1.0' encoding='UTF-8'?>
<configuration xmlns:xsi="http://www.w3.org/2001/XMLSchema-instance" xsi:noNamespaceSchemaLocation="http://sumo.dlr.de/xsd/netconvertConfiguration.xsd">
  <input>
    <node-files value="grid_0_1x3_i300_multiagent_20200330-1603351585555415.9797487.nod.xml"/>
    <edge-files value="grid_0_1x3_i300_multiagent_20200330-1603351585555415.9797487.edg.xml"/>
    <type-files value="grid_0_1x3_i300_multiagent_20200330-1603351585555415.9797487.typ.xml"/>
    <connection-files value="grid_0_1x3_i300_multiagent_20200330-1603351585555415.9797487.con.xml"/>
  </input>
  <output>
    <output-file value="grid_0_1x3_i300_multiagent_20200330-1603351585555415.9797487.net.xml"/>
  </output>
  <processing>
    <no-internal-links value="false"/>
    <no-turnarounds value="true"/>
  </processing>
</configuration>
