<?xml version='1.0' encoding='UTF-8'?>
<edges xmlns:xsi="http://www.w3.org/2001/XMLSchema-instance" xsi:noNamespaceSchemaLocation="http://sumo.dlr.de/xsd/edges_file.xsd">
  <edge id="top0_1" type="horizontal" priority="78" from="center1" to="center0" length="300"/>
  <edge id="bot0_1" type="horizontal" priority="78" from="center0" to="center1" length="300"/>
  <edge id="top0_2" type="horizontal" priority="78" from="center2" to="center1" length="300"/>
  <edge id="bot0_2" type="horizontal" priority="78" from="center1" to="center2" length="300"/>
  <edge id="top1_1" type="horizontal" priority="78" from="center4" to="center3" length="300"/>
  <edge id="bot1_1" type="horizontal" priority="78" from="center3" to="center4" length="300"/>
  <edge id="top1_2" type="horizontal" priority="78" from="center5" to="center4" length="300"/>
  <edge id="bot1_2" type="horizontal" priority="78" from="center4" to="center5" length="300"/>
  <edge id="top2_1" type="horizontal" priority="78" from="center7" to="center6" length="300"/>
  <edge id="bot2_1" type="horizontal" priority="78" from="center6" to="center7" length="300"/>
  <edge id="top2_2" type="horizontal" priority="78" from="center8" to="center7" length="300"/>
  <edge id="bot2_2" type="horizontal" priority="78" from="center7" to="center8" length="300"/>
  <edge id="top3_1" type="horizontal" priority="78" from="center10" to="center9" length="300"/>
  <edge id="bot3_1" type="horizontal" priority="78" from="center9" to="center10" length="300"/>
  <edge id="top3_2" type="horizontal" priority="78" from="center11" to="center10" length="300"/>
  <edge id="bot3_2" type="horizontal" priority="78" from="center10" to="center11" length="300"/>
  <edge id="right1_0" type="vertical" priority="78" from="center0" to="center3" length="300"/>
  <edge id="left1_0" type="vertical" priority="78" from="center3" to="center0" length="300"/>
  <edge id="right1_1" type="vertical" priority="78" from="center1" to="center4" length="300"/>
  <edge id="left1_1" type="vertical" priority="78" from="center4" to="center1" length="300"/>
  <edge id="right1_2" type="vertical" priority="78" from="center2" to="center5" length="300"/>
  <edge id="left1_2" type="vertical" priority="78" from="center5" to="center2" length="300"/>
  <edge id="right2_0" type="vertical" priority="78" from="center3" to="center6" length="300"/>
  <edge id="left2_0" type="vertical" priority="78" from="center6" to="center3" length="300"/>
  <edge id="right2_1" type="vertical" priority="78" from="center4" to="center7" length="300"/>
  <edge id="left2_1" type="vertical" priority="78" from="center7" to="center4" length="300"/>
  <edge id="right2_2" type="vertical" priority="78" from="center5" to="center8" length="300"/>
  <edge id="left2_2" type="vertical" priority="78" from="center8" to="center5" length="300"/>
  <edge id="right3_0" type="vertical" priority="78" from="center6" to="center9" length="300"/>
  <edge id="left3_0" type="vertical" priority="78" from="center9" to="center6" length="300"/>
  <edge id="right3_1" type="vertical" priority="78" from="center7" to="center10" length="300"/>
  <edge id="left3_1" type="vertical" priority="78" from="center10" to="center7" length="300"/>
  <edge id="right3_2" type="vertical" priority="78" from="center8" to="center11" length="300"/>
  <edge id="left3_2" type="vertical" priority="78" from="center11" to="center8" length="300"/>
  <edge id="right0_0" type="vertical" priority="78" from="bot_col_short0" to="center0" length="300"/>
  <edge id="left0_0" type="vertical" priority="78" from="center0" to="bot_col_long0" length="100"/>
  <edge id="left4_0" type="vertical" priority="78" from="top_col_short0" to="center9" length="300"/>
  <edge id="right4_0" type="vertical" priority="78" from="center9" to="top_col_long0" length="100"/>
  <edge id="right0_1" type="vertical" priority="78" from="bot_col_short1" to="center1" length="300"/>
  <edge id="left0_1" type="vertical" priority="78" from="center1" to="bot_col_long1" length="100"/>
  <edge id="left4_1" type="vertical" priority="78" from="top_col_short1" to="center10" length="300"/>
  <edge id="right4_1" type="vertical" priority="78" from="center10" to="top_col_long1" length="100"/>
  <edge id="right0_2" type="vertical" priority="78" from="bot_col_short2" to="center2" length="300"/>
  <edge id="left0_2" type="vertical" priority="78" from="center2" to="bot_col_long2" length="100"/>
  <edge id="left4_2" type="vertical" priority="78" from="top_col_short2" to="center11" length="300"/>
  <edge id="right4_2" type="vertical" priority="78" from="center11" to="top_col_long2" length="100"/>
  <edge id="bot0_0" type="horizontal" priority="78" from="left_row_short0" to="center0" length="300"/>
  <edge id="top0_0" type="horizontal" priority="78" from="center0" to="left_row_long0" length="100"/>
  <edge id="top0_3" type="horizontal" priority="78" from="right_row_short0" to="center2" length="300"/>
  <edge id="bot0_3" type="horizontal" priority="78" from="center2" to="right_row_long0" length="100"/>
  <edge id="bot1_0" type="horizontal" priority="78" from="left_row_short1" to="center3" length="300"/>
  <edge id="top1_0" type="horizontal" priority="78" from="center3" to="left_row_long1" length="100"/>
  <edge id="top1_3" type="horizontal" priority="78" from="right_row_short1" to="center5" length="300"/>
  <edge id="bot1_3" type="horizontal" priority="78" from="center5" to="right_row_long1" length="100"/>
  <edge id="bot2_0" type="horizontal" priority="78" from="left_row_short2" to="center6" length="300"/>
  <edge id="top2_0" type="horizontal" priority="78" from="center6" to="left_row_long2" length="100"/>
  <edge id="top2_3" type="horizontal" priority="78" from="right_row_short2" to="center8" length="300"/>
  <edge id="bot2_3" type="horizontal" priority="78" from="center8" to="right_row_long2" length="100"/>
  <edge id="bot3_0" type="horizontal" priority="78" from="left_row_short3" to="center9" length="300"/>
  <edge id="top3_0" type="horizontal" priority="78" from="center9" to="left_row_long3" length="100"/>
  <edge id="top3_3" type="horizontal" priority="78" from="right_row_short3" to="center11" length="300"/>
  <edge id="bot3_3" type="horizontal" priority="78" from="center11" to="right_row_long3" length="100"/>
</edges>
