<?xml version='1.0' encoding='UTF-8'?>
<nodes xmlns:xsi="http://www.w3.org/2001/XMLSchema-instance" xsi:noNamespaceSchemaLocation="http://sumo.dlr.de/xsd/nodes_file.xsd">
  <node id="bottom_0" x="0.0" y="-159.15494309189535"/>
  <node id="right_0" x="159.15494309189535" y="0.0"/>
  <node id="top_0" x="0.0" y="159.15494309189535"/>
  <node id="left_0" x="-159.15494309189535" y="0.0"/>
</nodes>
