<?xml version='1.0' encoding='UTF-8'?>
<edges xmlns:xsi="http://www.w3.org/2001/XMLSchema-instance" xsi:noNamespaceSchemaLocation="http://sumo.dlr.de/xsd/edges_file.xsd">
  <edge id="bottom_0" type="edgeType" from="bottom_0" to="right_0" length="57.5" shape="0.00,-36.61 1.47,-36.58 2.95,-36.49 4.41,-36.34 5.87,-36.13 7.32,-35.87 8.76,-35.54 10.18,-35.16 11.59,-34.72 12.98,-34.23 14.35,-33.68 15.69,-33.07 17.01,-32.41 18.30,-31.70 19.56,-30.94 20.79,-30.13 21.99,-29.26 23.15,-28.35 24.27,-27.40 25.36,-26.40 26.40,-25.36 27.40,-24.27 28.35,-23.15 29.26,-21.99 30.13,-20.79 30.94,-19.56 31.70,-18.30 32.41,-17.01 33.07,-15.69 33.68,-14.35 34.23,-12.98 34.72,-11.59 35.16,-10.18 35.54,-8.76 35.87,-7.32 36.13,-5.87 36.34,-4.41 36.49,-2.95 36.58,-1.47 36.61,0.00"/>
  <edge id="right_0" type="edgeType" from="right_0" to="top_0" length="57.5" shape="36.61,0.00 36.58,1.47 36.49,2.95 36.34,4.41 36.13,5.87 35.87,7.32 35.54,8.76 35.16,10.18 34.72,11.59 34.23,12.98 33.68,14.35 33.07,15.69 32.41,17.01 31.70,18.30 30.94,19.56 30.13,20.79 29.26,21.99 28.35,23.15 27.40,24.27 26.40,25.36 25.36,26.40 24.27,27.40 23.15,28.35 21.99,29.26 20.79,30.13 19.56,30.94 18.30,31.70 17.01,32.41 15.69,33.07 14.35,33.68 12.98,34.23 11.59,34.72 10.18,35.16 8.76,35.54 7.32,35.87 5.87,36.13 4.41,36.34 2.95,36.49 1.47,36.58 0.00,36.61"/>
  <edge id="top_0" type="edgeType" from="top_0" to="left_0" length="57.5" shape="0.00,36.61 -1.47,36.58 -2.95,36.49 -4.41,36.34 -5.87,36.13 -7.32,35.87 -8.76,35.54 -10.18,35.16 -11.59,34.72 -12.98,34.23 -14.35,33.68 -15.69,33.07 -17.01,32.41 -18.30,31.70 -19.56,30.94 -20.79,30.13 -21.99,29.26 -23.15,28.35 -24.27,27.40 -25.36,26.40 -26.40,25.36 -27.40,24.27 -28.35,23.15 -29.26,21.99 -30.13,20.79 -30.94,19.56 -31.70,18.30 -32.41,17.01 -33.07,15.69 -33.68,14.35 -34.23,12.98 -34.72,11.59 -35.16,10.18 -35.54,8.76 -35.87,7.32 -36.13,5.87 -36.34,4.41 -36.49,2.95 -36.58,1.47 -36.61,0.00"/>
  <edge id="left_0" type="edgeType" from="left_0" to="bottom_0" length="57.5" shape="-36.61,0.00 -36.58,-1.47 -36.49,-2.95 -36.34,-4.41 -36.13,-5.87 -35.87,-7.32 -35.54,-8.76 -35.16,-10.18 -34.72,-11.59 -34.23,-12.98 -33.68,-14.35 -33.07,-15.69 -32.41,-17.01 -31.70,-18.30 -30.94,-19.56 -30.13,-20.79 -29.26,-21.99 -28.35,-23.15 -27.40,-24.27 -26.40,-25.36 -25.36,-26.40 -24.27,-27.40 -23.15,-28.35 -21.99,-29.26 -20.79,-30.13 -19.56,-30.94 -18.30,-31.70 -17.01,-32.41 -15.69,-33.07 -14.35,-33.68 -12.98,-34.23 -11.59,-34.72 -10.18,-35.16 -8.76,-35.54 -7.32,-35.87 -5.87,-36.13 -4.41,-36.34 -2.95,-36.49 -1.47,-36.58 -0.00,-36.61"/>
  <edge id="bottom_1" type="edgeType" from="bottom_1" to="right_1" length="57.5" shape="0.00,109.82 1.47,109.85 2.95,109.94 4.41,110.08 5.87,110.29 7.32,110.56 8.76,110.88 10.18,111.26 11.59,111.70 12.98,112.20 14.35,112.75 15.69,113.35 17.01,114.01 18.30,114.72 19.56,115.48 20.79,116.30 21.99,117.16 23.15,118.07 24.27,119.02 25.36,120.02 26.40,121.06 27.40,122.15 28.35,123.27 29.26,124.43 30.13,125.63 30.94,126.86 31.70,128.12 32.41,129.41 33.07,130.73 33.68,132.07 34.23,133.44 34.72,134.83 35.16,136.24 35.54,137.66 35.87,139.10 36.13,140.55 36.34,142.01 36.49,143.48 36.58,144.95 36.61,146.42"/>
  <edge id="right_1" type="edgeType" from="right_1" to="top_1" length="57.5" shape="36.61,146.42 36.58,147.90 36.49,149.37 36.34,150.83 36.13,152.29 35.87,153.74 35.54,155.18 35.16,156.61 34.72,158.01 34.23,159.40 33.68,160.77 33.07,162.12 32.41,163.43 31.70,164.73 30.94,165.99 30.13,167.22 29.26,168.41 28.35,169.57 27.40,170.70 26.40,171.78 25.36,172.82 24.27,173.82 23.15,174.78 21.99,175.69 20.79,176.55 19.56,177.36 18.30,178.12 17.01,178.84 15.69,179.49 14.35,180.10 12.98,180.65 11.59,181.14 10.18,181.58 8.76,181.96 7.32,182.29 5.87,182.55 4.41,182.76 2.95,182.91 1.47,183.00 0.00,183.03"/>
  <edge id="top_1" type="edgeType" from="top_1" to="left_1" length="57.5" shape="0.00,183.03 -1.47,183.00 -2.95,182.91 -4.41,182.76 -5.87,182.55 -7.32,182.29 -8.76,181.96 -10.18,181.58 -11.59,181.14 -12.98,180.65 -14.35,180.10 -15.69,179.49 -17.01,178.84 -18.30,178.12 -19.56,177.36 -20.79,176.55 -21.99,175.69 -23.15,174.78 -24.27,173.82 -25.36,172.82 -26.40,171.78 -27.40,170.70 -28.35,169.57 -29.26,168.41 -30.13,167.22 -30.94,165.99 -31.70,164.73 -32.41,163.43 -33.07,162.12 -33.68,160.77 -34.23,159.40 -34.72,158.01 -35.16,156.61 -35.54,155.18 -35.87,153.74 -36.13,152.29 -36.34,150.83 -36.49,149.37 -36.58,147.90 -36.61,146.42"/>
  <edge id="left_1" type="edgeType" from="left_1" to="bottom_1" length="57.5" shape="-36.61,146.42 -36.58,144.95 -36.49,143.48 -36.34,142.01 -36.13,140.55 -35.87,139.10 -35.54,137.66 -35.16,136.24 -34.72,134.83 -34.23,133.44 -33.68,132.07 -33.07,130.73 -32.41,129.41 -31.70,128.12 -30.94,126.86 -30.13,125.63 -29.26,124.43 -28.35,123.27 -27.40,122.15 -26.40,121.06 -25.36,120.02 -24.27,119.02 -23.15,118.07 -21.99,117.16 -20.79,116.30 -19.56,115.48 -18.30,114.72 -17.01,114.01 -15.69,113.35 -14.35,112.75 -12.98,112.20 -11.59,111.70 -10.18,111.26 -8.76,110.88 -7.32,110.56 -5.87,110.29 -4.41,110.08 -2.95,109.94 -1.47,109.85 -0.00,109.82"/>
  <edge id="bottom_2" type="edgeType" from="bottom_2" to="right_2" length="57.5" shape="146.42,-36.61 147.90,-36.58 149.37,-36.49 150.83,-36.34 152.29,-36.13 153.74,-35.87 155.18,-35.54 156.61,-35.16 158.01,-34.72 159.40,-34.23 160.77,-33.68 162.12,-33.07 163.43,-32.41 164.73,-31.70 165.99,-30.94 167.22,-30.13 168.41,-29.26 169.57,-28.35 170.70,-27.40 171.78,-26.40 172.82,-25.36 173.82,-24.27 174.78,-23.15 175.69,-21.99 176.55,-20.79 177.36,-19.56 178.12,-18.30 178.84,-17.01 179.49,-15.69 180.10,-14.35 180.65,-12.98 181.14,-11.59 181.58,-10.18 181.96,-8.76 182.29,-7.32 182.55,-5.87 182.76,-4.41 182.91,-2.95 183.00,-1.47 183.03,0.00"/>
  <edge id="right_2" type="edgeType" from="right_2" to="top_2" length="57.5" shape="183.03,0.00 183.00,1.47 182.91,2.95 182.76,4.41 182.55,5.87 182.29,7.32 181.96,8.76 181.58,10.18 181.14,11.59 180.65,12.98 180.10,14.35 179.49,15.69 178.84,17.01 178.12,18.30 177.36,19.56 176.55,20.79 175.69,21.99 174.78,23.15 173.82,24.27 172.82,25.36 171.78,26.40 170.70,27.40 169.57,28.35 168.41,29.26 167.22,30.13 165.99,30.94 164.73,31.70 163.43,32.41 162.12,33.07 160.77,33.68 159.40,34.23 158.01,34.72 156.61,35.16 155.18,35.54 153.74,35.87 152.29,36.13 150.83,36.34 149.37,36.49 147.90,36.58 146.42,36.61"/>
  <edge id="top_2" type="edgeType" from="top_2" to="left_2" length="57.5" shape="146.42,36.61 144.95,36.58 143.48,36.49 142.01,36.34 140.55,36.13 139.10,35.87 137.66,35.54 136.24,35.16 134.83,34.72 133.44,34.23 132.07,33.68 130.73,33.07 129.41,32.41 128.12,31.70 126.86,30.94 125.63,30.13 124.43,29.26 123.27,28.35 122.15,27.40 121.06,26.40 120.02,25.36 119.02,24.27 118.07,23.15 117.16,21.99 116.30,20.79 115.48,19.56 114.72,18.30 114.01,17.01 113.35,15.69 112.75,14.35 112.20,12.98 111.70,11.59 111.26,10.18 110.88,8.76 110.56,7.32 110.29,5.87 110.08,4.41 109.94,2.95 109.85,1.47 109.82,0.00"/>
  <edge id="left_2" type="edgeType" from="left_2" to="bottom_2" length="57.5" shape="109.82,0.00 109.85,-1.47 109.94,-2.95 110.08,-4.41 110.29,-5.87 110.56,-7.32 110.88,-8.76 111.26,-10.18 111.70,-11.59 112.20,-12.98 112.75,-14.35 113.35,-15.69 114.01,-17.01 114.72,-18.30 115.48,-19.56 116.30,-20.79 117.16,-21.99 118.07,-23.15 119.02,-24.27 120.02,-25.36 121.06,-26.40 122.15,-27.40 123.27,-28.35 124.43,-29.26 125.63,-30.13 126.86,-30.94 128.12,-31.70 129.41,-32.41 130.73,-33.07 132.07,-33.68 133.44,-34.23 134.83,-34.72 136.24,-35.16 137.66,-35.54 139.10,-35.87 140.55,-36.13 142.01,-36.34 143.48,-36.49 144.95,-36.58 146.42,-36.61"/>
</edges>
