<?xml version='1.0' encoding='UTF-8'?>
<edges xmlns:xsi="http://www.w3.org/2001/XMLSchema-instance" xsi:noNamespaceSchemaLocation="http://sumo.dlr.de/xsd/edges_file.xsd">
  <edge id="bottom_0" type="edgeType" from="bottom_0" to="right_0" length="250.0" shape="0.00,-159.15 6.41,-159.03 12.81,-158.64 19.18,-157.99 25.53,-157.09 31.84,-155.94 38.09,-154.53 44.28,-152.87 50.40,-150.96 56.44,-148.81 62.38,-146.42 68.23,-143.79 73.96,-140.92 79.58,-137.83 85.06,-134.52 90.41,-130.98 95.61,-127.24 100.66,-123.28 105.54,-119.13 110.25,-114.78 114.78,-110.25 119.13,-105.54 123.28,-100.66 127.24,-95.61 130.98,-90.41 134.52,-85.06 137.83,-79.58 140.92,-73.96 143.79,-68.23 146.42,-62.38 148.81,-56.44 150.96,-50.40 152.87,-44.28 154.53,-38.09 155.94,-31.84 157.09,-25.53 157.99,-19.18 158.64,-12.81 159.03,-6.41 159.15,0.00"/>
  <edge id="right_0" type="edgeType" from="right_0" to="top_0" length="250.0" shape="159.15,0.00 159.03,6.41 158.64,12.81 157.99,19.18 157.09,25.53 155.94,31.84 154.53,38.09 152.87,44.28 150.96,50.40 148.81,56.44 146.42,62.38 143.79,68.23 140.92,73.96 137.83,79.58 134.52,85.06 130.98,90.41 127.24,95.61 123.28,100.66 119.13,105.54 114.78,110.25 110.25,114.78 105.54,119.13 100.66,123.28 95.61,127.24 90.41,130.98 85.06,134.52 79.58,137.83 73.96,140.92 68.23,143.79 62.38,146.42 56.44,148.81 50.40,150.96 44.28,152.87 38.09,154.53 31.84,155.94 25.53,157.09 19.18,157.99 12.81,158.64 6.41,159.03 0.00,159.15"/>
  <edge id="top_0" type="edgeType" from="top_0" to="left_0" length="250.0" shape="0.00,159.15 -6.41,159.03 -12.81,158.64 -19.18,157.99 -25.53,157.09 -31.84,155.94 -38.09,154.53 -44.28,152.87 -50.40,150.96 -56.44,148.81 -62.38,146.42 -68.23,143.79 -73.96,140.92 -79.58,137.83 -85.06,134.52 -90.41,130.98 -95.61,127.24 -100.66,123.28 -105.54,119.13 -110.25,114.78 -114.78,110.25 -119.13,105.54 -123.28,100.66 -127.24,95.61 -130.98,90.41 -134.52,85.06 -137.83,79.58 -140.92,73.96 -143.79,68.23 -146.42,62.38 -148.81,56.44 -150.96,50.40 -152.87,44.28 -154.53,38.09 -155.94,31.84 -157.09,25.53 -157.99,19.18 -158.64,12.81 -159.03,6.41 -159.15,0.00"/>
  <edge id="left_0" type="edgeType" from="left_0" to="bottom_0" length="250.0" shape="-159.15,0.00 -159.03,-6.41 -158.64,-12.81 -157.99,-19.18 -157.09,-25.53 -155.94,-31.84 -154.53,-38.09 -152.87,-44.28 -150.96,-50.40 -148.81,-56.44 -146.42,-62.38 -143.79,-68.23 -140.92,-73.96 -137.83,-79.58 -134.52,-85.06 -130.98,-90.41 -127.24,-95.61 -123.28,-100.66 -119.13,-105.54 -114.78,-110.25 -110.25,-114.78 -105.54,-119.13 -100.66,-123.28 -95.61,-127.24 -90.41,-130.98 -85.06,-134.52 -79.58,-137.83 -73.96,-140.92 -68.23,-143.79 -62.38,-146.42 -56.44,-148.81 -50.40,-150.96 -44.28,-152.87 -38.09,-154.53 -31.84,-155.94 -25.53,-157.09 -19.18,-157.99 -12.81,-158.64 -6.41,-159.03 -0.00,-159.15"/>
</edges>
