<?xml version='1.0' encoding='UTF-8'?>
<edges xmlns:xsi="http://www.w3.org/2001/XMLSchema-instance" xsi:noNamespaceSchemaLocation="http://sumo.dlr.de/xsd/edges_file.xsd">
  <edge id="e_1" from="n_s1" to="n_r1" length="9.9" numLanes="2" type="edgeType" shape="26.00,72.00 26.00,71.43 25.98,70.85 25.96,70.28 25.94,69.70 25.90,69.13 25.86,68.56 25.80,67.99 25.74,67.41 25.68,66.84 25.60,66.27 25.52,65.71 25.42,65.14 25.33,64.57 25.22,64.01 25.10,63.45 24.98,62.89 24.85,62.33 24.71,61.77 24.56,61.21 24.41,60.66 24.25,60.11 24.08,59.56 23.90,59.01 23.72,58.47 23.52,57.93 23.32,57.39 23.12,56.86 22.90,56.32 22.68,55.79 22.45,55.27 22.21,54.74 21.97,54.22 21.72,53.71 21.46,53.19 21.19,52.69 20.92,52.18 20.64,51.68 20.35,51.18 20.06,50.69"/>
  <edge id="e_2" from="n_i1" to="n_s1" length="38.0" numLanes="2" type="edgeType"/>
  <edge id="e_3" from="n_b1" to="n_i1" length="38.0" numLanes="2" type="edgeType"/>
  <edge id="e_4" from="n_b2" to="n_b1" length="10" numLanes="2" type="edgeType"/>
  <edge id="e_5" from="n_i2" to="n_b2" length="28.0" numLanes="1" type="edgeType"/>
  <edge id="e_6" from="n_s12" to="n_i2" length="14.0" numLanes="1" type="edgeType"/>
  <edge id="e_7" from="n_r1" to="n_r2" length="46.39391129873181" numLanes="2" type="edgeType" shape="18.72,49.48 18.06,48.49 17.45,47.47 16.91,46.41 16.42,45.33 15.99,44.22 15.63,43.08 15.33,41.93 15.10,40.76 14.93,39.59 14.83,38.40 14.80,37.21 14.83,36.02 14.93,34.84 15.10,33.66 15.33,32.49 15.63,31.34 15.99,30.21 16.41,29.10 16.90,28.01 17.44,26.95 18.05,25.93 18.71,24.94 19.42,23.99 20.19,23.08 21.01,22.21 21.87,21.40 22.78,20.63 23.73,19.91 24.72,19.25 25.74,18.65 26.80,18.10 27.88,17.61 29.00,17.19 30.13,16.83 31.28,16.53 32.45,16.30 33.63,16.13 34.81,16.03 36.00,16.00"/>
  <edge id="e_8_b" from="n_r2" to="n_r4_tmp" length="2" numLanes="2" type="edgeType" shape="36.00,16.00 36.51,16.01 37.02,16.02 37.54,16.06 38.05,16.10 38.56,16.15 39.06,16.22 39.57,16.30 40.07,16.39 40.57,16.50 41.07,16.62 41.57,16.74 42.06,16.89 42.55,17.04 43.04,17.20 43.52,17.38 43.99,17.57 44.47,17.76 44.93,17.97 45.40,18.20 45.85,18.43 46.30,18.67 46.75,18.93 47.19,19.19 47.62,19.47 48.04,19.75 48.46,20.05 48.87,20.35 49.28,20.67 49.67,21.00 50.06,21.33 50.44,21.68 50.81,22.03 51.17,22.39 51.52,22.76 51.87,23.14 52.20,23.53 52.53,23.92 52.85,24.33 53.15,24.74"/>
  <edge id="e_8_u" from="n_r4_tmp" to="n_r4" length="8" numLanes="2" type="edgeType" shape="57.20,37.20 57.20,37.54 57.19,37.87 57.18,38.21 57.16,38.54 57.13,38.88 57.10,39.21 57.07,39.55 57.03,39.88 56.98,40.21 56.93,40.54 56.88,40.88 56.82,41.21 56.75,41.54 56.68,41.86 56.60,42.19 56.52,42.52 56.44,42.84 56.34,43.16 56.25,43.49 56.14,43.81 56.04,44.12 55.93,44.44 55.81,44.76 55.69,45.07 55.56,45.38 55.43,45.69 55.29,45.99 55.15,46.30 55.00,46.60 54.85,46.90 54.69,47.20 54.53,47.49 54.37,47.79 54.20,48.08 54.02,48.36 53.84,48.65 53.66,48.93 53.47,49.21 53.28,49.48"/>
  <edge id="e_9" from="n_r4" to="n_r3" length="11.999894675254833" numLanes="2" type="edgeType" shape="53.28,49.48 53.10,49.73 52.92,49.98 52.73,50.22 52.54,50.46 52.34,50.70 52.15,50.94 51.95,51.17 51.74,51.40 51.53,51.63 51.32,51.85 51.11,52.07 50.89,52.29 50.67,52.50 50.45,52.72 50.22,52.92 49.99,53.13 49.76,53.33 49.52,53.53 49.28,53.72 49.04,53.91 48.80,54.10 48.55,54.28 48.30,54.47 48.05,54.64 47.80,54.82 47.54,54.98 47.28,55.15 47.02,55.31 46.75,55.47 46.49,55.62 46.22,55.77 45.95,55.92 45.68,56.06 45.40,56.20 45.12,56.34 44.85,56.47 44.57,56.59 44.28,56.72 44.00,56.83"/>
  <edge id="e_10" from="n_r3" to="n_s1" length="19.999259222450902" numLanes="2" type="edgeType" shape="36.38,60.21 35.91,60.42 35.45,60.65 34.99,60.88 34.55,61.14 34.11,61.40 33.67,61.68 33.25,61.97 32.84,62.27 32.43,62.59 32.04,62.91 31.65,63.25 31.28,63.60 30.91,63.96 30.56,64.33 30.22,64.72 29.89,65.11 29.57,65.51 29.26,65.92 28.97,66.34 28.69,66.77 28.42,67.21 28.16,67.65 27.92,68.10 27.69,68.56 27.48,69.03 27.28,69.50 27.09,69.98 26.92,70.46 26.76,70.95 26.62,71.44 26.49,71.94 26.37,72.44 26.27,72.94 26.19,73.45 26.12,73.95 26.07,74.46 26.03,74.97 26.01,75.49 26.00,76.00"/>
  <edge id="e_11" from="n_s1" to="n_i1" length="38.0" numLanes="2" type="edgeType"/>
  <edge id="e_12" from="n_i1" to="n_b1" length="38.0" numLanes="2" type="edgeType"/>
  <edge id="e_13" from="n_b1" to="n_b2" length="10" numLanes="2" type="edgeType"/>
  <edge id="e_14" from="n_b2" to="n_i2" length="28.0" numLanes="1" type="edgeType"/>
  <edge id="e_15" from="n_i2" to="n_s12" length="14.0" numLanes="1" type="edgeType"/>
  <edge id="e_16" from="n_s12" to="n_s13" length="33.92690734161388" numLanes="1" type="edgeType" shape="26.00,208.40 26.02,209.27 26.07,210.14 26.16,211.00 26.28,211.86 26.44,212.72 26.63,213.57 26.85,214.41 27.11,215.24 27.40,216.06 27.73,216.87 28.09,217.66 28.47,218.44 28.89,219.20 29.34,219.94 29.82,220.67 30.33,221.38 30.87,222.06 31.43,222.72 32.02,223.36 32.64,223.98 33.28,224.57 33.94,225.13 34.62,225.67 35.33,226.18 36.06,226.66 36.80,227.11 37.56,227.53 38.34,227.91 39.13,228.27 39.94,228.60 40.76,228.89 41.59,229.15 42.43,229.37 43.28,229.56 44.14,229.72 45.00,229.84 45.86,229.93 46.73,229.98 47.60,230.00"/>
  <edge id="e_17" from="n_r2" to="n_m1_b" length="18" numLanes="2" type="edgeType"/>
  <edge id="e_18" from="n_b1" to="n_s2" length="12" numLanes="1" type="edgeType" shape="26.00,144.40 26.02,145.22 26.07,146.03 26.16,146.84 26.29,147.65 26.45,148.44 26.65,149.24 26.88,150.02 27.14,150.79 27.44,151.55 27.78,152.29 28.14,153.02 28.54,153.73 28.97,154.42 29.43,155.10 29.92,155.75 30.44,156.38 30.98,156.99 31.55,157.57 32.15,158.13 32.77,158.66 33.41,159.16 34.08,159.63 34.76,160.07 35.46,160.48 36.19,160.86 36.92,161.21 37.68,161.53 38.44,161.81 39.22,162.06 40.01,162.27 40.80,162.44 41.60,162.59 42.41,162.69 43.23,162.76 44.04,162.80 44.86,162.79 45.67,162.76 46.48,162.68 47.29,162.57"/>
  <edge id="e_19" from="n_s2" to="n_s3" length="31.19754259114931" numLanes="1" type="edgeType" shape="46.11,162.94 46.90,162.86 47.70,162.81 48.50,162.80 49.30,162.82 50.10,162.88 50.89,162.97 51.68,163.10 52.47,163.26 53.24,163.45 54.01,163.68 54.77,163.94 55.51,164.23 56.24,164.56 56.96,164.91 57.66,165.30 58.34,165.72 59.01,166.16 59.65,166.64 60.27,167.14 60.87,167.67 61.45,168.23 62.00,168.80 62.52,169.41 63.02,170.03 63.50,170.68 63.94,171.34 64.35,172.03 64.74,172.73 65.09,173.45 65.41,174.18 65.70,174.93 65.95,175.69 66.18,176.45 66.37,177.23 66.52,178.02 66.64,178.81 66.73,179.60 66.78,180.40 66.80,181.20"/>
  <edge id="e_20" from="n_s13" to="n_i5" length="74.0" numLanes="1" type="edgeType"/>
  <edge id="e_21" from="n_m1_u" to="n_r4_tmp" length="5" numLanes="2" type="edgeType" shape="75.60,16.00 75.17,16.00 74.73,16.02 74.30,16.04 73.86,16.07 73.43,16.11 73.00,16.16 72.57,16.21 72.14,16.28 71.71,16.35 71.28,16.44 70.85,16.53 70.43,16.63 70.01,16.74 69.59,16.85 69.17,16.98 68.76,17.11 68.35,17.25 67.94,17.40 67.54,17.56 67.13,17.73 66.74,17.90 66.34,18.09 65.95,18.28 65.56,18.47 65.18,18.68 64.80,18.89 64.43,19.12 64.06,19.34 63.69,19.58 63.33,19.82 62.97,20.07 62.62,20.33 62.28,20.60 61.94,20.87 61.61,21.15 61.28,21.43 60.95,21.72 60.64,22.02 60.33,22.33"/>
  <edge id="e_22" from="n_i2" to="n_m3" length="61.2" numLanes="1" type="edgeType"/>
  <edge id="e_23" from="n_m3" to="n_i2" length="61.2" numLanes="1" type="edgeType"/>
  <edge id="e_24" from="n_s3" to="n_m3" length="12" numLanes="1" type="edgeType" shape="66.80,177.60 66.81,178.34 66.86,179.08 66.93,179.82 67.04,180.55 67.17,181.28 67.33,182.00 67.53,182.72 67.75,183.43 68.00,184.12 68.27,184.81 68.58,185.49 68.91,186.15 69.27,186.80 69.65,187.43 70.06,188.05 70.49,188.65 70.95,189.24 71.43,189.80 71.93,190.35 72.45,190.87 73.00,191.37 73.56,191.85 74.15,192.31 74.75,192.74 75.37,193.15 76.00,193.53 76.65,193.89 77.31,194.22 77.99,194.53 78.68,194.80 79.37,195.05 80.08,195.27 80.80,195.47 81.52,195.63 82.25,195.76 82.98,195.87 83.72,195.94 84.46,195.99 85.20,196.00"/>
  <edge id="e_25" from="n_i1" to="n_m2" length="52.400000000000006" numLanes="2" type="edgeType"/>
  <edge id="e_26" from="n_m2" to="n_i1" length="52.400000000000006" numLanes="2" type="edgeType"/>
  <edge id="e_27" from="n_s13" to="n_s12" length="33.92690734161388" numLanes="1" type="edgeType" shape="47.60,230.00 46.73,229.98 45.86,229.93 45.00,229.84 44.14,229.72 43.28,229.56 42.43,229.37 41.59,229.15 40.76,228.89 39.94,228.60 39.13,228.27 38.34,227.91 37.56,227.53 36.80,227.11 36.06,226.66 35.33,226.18 34.62,225.67 33.94,225.13 33.28,224.57 32.64,223.98 32.02,223.36 31.43,222.72 30.87,222.06 30.33,221.38 29.82,220.67 29.34,219.94 28.89,219.20 28.47,218.44 28.09,217.66 27.73,216.87 27.40,216.06 27.11,215.24 26.85,214.41 26.63,213.57 26.44,212.72 26.28,211.86 26.16,211.00 26.07,210.14 26.02,209.27 26.00,208.40"/>
  <edge id="e_28_b" from="n_m1_b" to="n_m4" length="26.799999999999997" numLanes="2" type="edgeType"/>
  <edge id="e_29_u" from="n_m4" to="n_m1_u" length="13" numLanes="2" type="edgeType"/>
  <edge id="e_30" from="n_m2" to="n_s5" length="28.900698846559965" numLanes="1" type="edgeType" shape="75.20,110.00 75.94,109.99 76.68,109.94 77.42,109.87 78.15,109.76 78.88,109.63 79.60,109.47 80.32,109.27 81.03,109.05 81.72,108.80 82.41,108.53 83.09,108.22 83.75,107.89 84.40,107.53 85.03,107.15 85.65,106.74 86.25,106.31 86.84,105.85 87.40,105.37 87.95,104.87 88.47,104.35 88.97,103.80 89.45,103.24 89.91,102.65 90.34,102.05 90.75,101.43 91.13,100.80 91.49,100.15 91.82,99.49 92.13,98.81 92.40,98.12 92.65,97.43 92.87,96.72 93.07,96.00 93.23,95.28 93.36,94.55 93.47,93.82 93.54,93.08 93.59,92.34 93.60,91.60"/>
  <edge id="e_31" from="n_s5" to="n_s4" length="33.60000000000001" numLanes="1" type="edgeType"/>
  <edge id="e_32" from="n_s4" to="n_m1_u" length="12" numLanes="1" type="edgeType" shape="93.60,34.40 93.59,33.66 93.54,32.92 93.47,32.18 93.36,31.45 93.23,30.72 93.07,30.00 92.87,29.28 92.65,28.57 92.40,27.88 92.13,27.19 91.82,26.51 91.49,25.85 91.13,25.20 90.75,24.57 90.34,23.95 89.91,23.35 89.45,22.76 88.97,22.20 88.47,21.65 87.95,21.13 87.40,20.63 86.84,20.15 86.25,19.69 85.65,19.26 85.03,18.85 84.40,18.47 83.75,18.11 83.09,17.78 82.41,17.47 81.72,17.20 81.03,16.95 80.32,16.73 79.60,16.53 78.88,16.37 78.15,16.24 77.42,16.13 76.68,16.06 75.94,16.01 75.20,16.00"/>
  <edge id="e_33" from="n_m3" to="n_i4" length="34.8" numLanes="1" type="edgeType"/>
  <edge id="e_34" from="n_i4" to="n_m3" length="34.8" numLanes="1" type="edgeType"/>
  <edge id="e_35" from="n_i5" to="n_s13" length="74.0" numLanes="1" type="edgeType"/>
  <edge id="e_36" from="n_m4" to="n_s7_l" length="8" numLanes="2" type="edgeType"/>
  <edge id="e_37" from="n_s6" to="n_m4" length="5" numLanes="2" type="edgeType" shape="122.00,34.40 121.99,33.66 121.94,32.92 121.87,32.18 121.76,31.45 121.63,30.72 121.47,30.00 121.27,29.28 121.05,28.57 120.80,27.88 120.53,27.19 120.22,26.51 119.89,25.85 119.53,25.20 119.15,24.57 118.74,23.95 118.31,23.35 117.85,22.76 117.37,22.20 116.87,21.65 116.35,21.13 115.80,20.63 115.24,20.15 114.65,19.69 114.05,19.26 113.43,18.85 112.80,18.47 112.15,18.11 111.49,17.78 110.81,17.47 110.12,17.20 109.43,16.95 108.72,16.73 108.00,16.53 107.28,16.37 106.55,16.24 105.82,16.13 105.08,16.06 104.34,16.01 103.60,16.00"/>
  <edge id="e_38" from="n_s6" to="n_i3" length="64.0" numLanes="2" type="edgeType"/>
  <edge id="e_39" from="n_i3" to="n_s6" length="64.0" numLanes="2" type="edgeType"/>
  <edge id="e_40" from="n_i3" to="n_b3" length="40.0" numLanes="2" type="edgeType"/>
  <edge id="e_41" from="n_b3" to="n_i3" length="40.0" numLanes="2" type="edgeType"/>
  <edge id="e_42" from="n_b3" to="n_b4" length="18.0" numLanes="2" type="edgeType"/>
  <edge id="e_43" from="n_b4" to="n_b3" length="18.0" numLanes="2" type="edgeType"/>
  <edge id="e_44" from="n_b4" to="n_i4" length="28.0" numLanes="1" type="edgeType"/>
  <edge id="e_45" from="n_i4" to="n_b4" length="28.0" numLanes="1" type="edgeType"/>
  <edge id="e_46" from="n_i4" to="n_i5" length="34.0" numLanes="1" type="edgeType"/>
  <edge id="e_47" from="n_i5" to="n_i4" length="34.0" numLanes="1" type="edgeType"/>
  <edge id="e_48" from="n_i5" to="n_i9" length="81.19999999999999" numLanes="1" type="edgeType"/>
  <edge id="e_49" from="n_i4" to="n_m5" length="46.0" numLanes="1" type="edgeType"/>
  <edge id="e_50" from="n_i3" to="n_b5" length="42.0" numLanes="2" type="edgeType"/>
  <edge id="e_51" from="n_s7_l" to="n_m4" length="8" numLanes="2" type="edgeType"/>
  <edge id="e_52" from="n_s7_l" to="n_s6" length="5" numLanes="2" type="edgeType" shape="140.40,16.00 139.66,16.01 138.92,16.06 138.18,16.13 137.45,16.24 136.72,16.37 136.00,16.53 135.28,16.73 134.57,16.95 133.88,17.20 133.19,17.47 132.51,17.78 131.85,18.11 131.20,18.47 130.57,18.85 129.95,19.26 129.35,19.69 128.76,20.15 128.20,20.63 127.65,21.13 127.13,21.65 126.63,22.20 126.15,22.76 125.69,23.35 125.26,23.95 124.85,24.57 124.47,25.20 124.11,25.85 123.78,26.51 123.47,27.19 123.20,27.88 122.95,28.57 122.73,29.28 122.53,30.00 122.37,30.72 122.24,31.45 122.13,32.18 122.06,32.92 122.01,33.66 122.00,34.40"/>
  <edge id="e_53" from="n_s7_r" to="n_r7" length="49" numLanes="2" type="edgeType" shape="154.00,16.05 155.44,16.02 156.87,16.00 158.31,16.00 159.74,16.01 161.18,16.03 162.61,16.07 164.05,16.12 165.48,16.18 166.92,16.26 168.35,16.35 169.78,16.45 171.21,16.57 172.64,16.70 174.07,16.84 175.50,17.00 176.93,17.17 178.35,17.35 179.77,17.55 181.19,17.76 182.61,17.98 184.03,18.22 185.44,18.47 186.85,18.73 188.26,19.01 189.67,19.30 191.07,19.60 192.47,19.92 193.87,20.25 195.27,20.59 196.66,20.94 198.04,21.31 199.43,21.69 200.81,22.09 202.19,22.49 203.56,22.91 204.93,23.34 206.29,23.79 207.66,24.25 209.01,24.72"/>
  <edge id="e_54" from="n_b5" to="n_i3" length="42.0" numLanes="2" type="edgeType"/>
  <edge id="e_55" from="n_m5" to="n_s8" length="24.0" numLanes="1" type="edgeType"/>
  <edge id="e_56" from="n_s8" to="n_s14" length="33.92690734161387" numLanes="1" type="edgeType" shape="168.40,171.60 168.42,170.73 168.47,169.86 168.56,169.00 168.68,168.14 168.84,167.28 169.03,166.43 169.25,165.59 169.51,164.76 169.80,163.94 170.13,163.13 170.49,162.34 170.87,161.56 171.29,160.80 171.74,160.06 172.22,159.33 172.73,158.62 173.27,157.94 173.83,157.28 174.42,156.64 175.04,156.02 175.68,155.43 176.34,154.87 177.02,154.33 177.73,153.82 178.46,153.34 179.20,152.89 179.96,152.47 180.74,152.09 181.53,151.73 182.34,151.40 183.16,151.11 183.99,150.85 184.83,150.63 185.68,150.44 186.54,150.28 187.40,150.16 188.26,150.07 189.13,150.02 190.00,150.00"/>
  <edge id="e_57" from="n_s8" to="n_m5" length="24.0" numLanes="1" type="edgeType"/>
  <edge id="e_58" from="n_m5" to="n_i8" length="35.19999999999999" numLanes="1" type="edgeType"/>
  <edge id="e_59" from="n_m5" to="n_i4" length="46.0" numLanes="1" type="edgeType"/>
  <edge id="e_60" from="n_b5" to="n_b6" length="18.0" numLanes="2" type="edgeType"/>
  <edge id="e_61" from="n_b6" to="n_b5" length="18.0" numLanes="2" type="edgeType"/>
  <edge id="e_62" from="n_s14" to="n_s8" length="33.92690734161387" numLanes="1" type="edgeType" shape="190.00,150.00 189.13,150.02 188.26,150.07 187.40,150.16 186.54,150.28 185.68,150.44 184.83,150.63 183.99,150.85 183.16,151.11 182.34,151.40 181.53,151.73 180.74,152.09 179.96,152.47 179.20,152.89 178.46,153.34 177.73,153.82 177.02,154.33 176.34,154.87 175.68,155.43 175.04,156.02 174.42,156.64 173.83,157.28 173.27,157.94 172.73,158.62 172.22,159.33 171.74,160.06 171.29,160.80 170.87,161.56 170.49,162.34 170.13,163.13 169.80,163.94 169.51,164.76 169.25,165.59 169.03,166.43 168.84,167.28 168.68,168.14 168.56,169.00 168.47,169.86 168.42,170.73 168.40,171.60"/>
  <edge id="e_63" from="n_r5" to="n_s7_r" length="26" numLanes="2" type="edgeType" shape="183.20,41.20 183.18,40.19 183.12,39.17 183.02,38.16 182.87,37.16 182.69,36.16 182.47,35.17 182.21,34.19 181.90,33.22 181.56,32.26 181.18,31.32 180.77,30.40 180.31,29.49 179.82,28.60 179.30,27.73 178.74,26.88 178.15,26.06 177.52,25.26 176.86,24.49 176.17,23.74 175.46,23.03 174.71,22.34 173.94,21.68 173.14,21.05 172.32,20.46 171.47,19.90 170.60,19.38 169.71,18.89 168.80,18.43 167.88,18.02 166.94,17.64 165.98,17.30 165.01,16.99 164.03,16.73 163.04,16.51 162.04,16.33 161.04,16.18 160.03,16.08 159.01,16.02 158.00,16.00"/>
  <edge id="e_64" from="n_r7" to="n_r8" length="66.74238421319059" numLanes="2" type="edgeType" shape="203.20,23.60 204.91,23.66 206.61,23.85 208.29,24.17 209.95,24.60 211.57,25.16 213.14,25.84 214.66,26.63 216.11,27.53 217.50,28.53 218.81,29.63 220.03,30.83 221.16,32.11 222.19,33.48 223.12,34.91 223.95,36.42 224.66,37.97 225.25,39.58 225.72,41.22 226.07,42.90 226.30,44.60 226.39,46.30 226.37,48.02 226.22,49.72 225.94,51.41 225.54,53.07 225.01,54.70 224.37,56.29 223.61,57.82 222.75,59.30 221.77,60.70 220.70,62.04 219.53,63.28 218.27,64.44 216.92,65.50 215.51,66.47 214.03,67.32 212.48,68.06 210.89,68.69 209.26,69.20"/>
  <edge id="e_65" from="n_r8" to="n_r6" length="5" numLanes="2" type="edgeType" shape="209.26,69.20 208.89,69.29 208.53,69.38 208.17,69.46 207.80,69.54 207.43,69.61 207.07,69.68 206.70,69.73 206.33,69.79 205.96,69.84 205.59,69.88 205.21,69.91 204.84,69.94 204.47,69.97 204.09,69.98 203.72,69.99 203.35,70.00 202.97,70.00 202.60,69.99 202.23,69.98 201.85,69.96 201.48,69.94 201.11,69.91 200.74,69.87 200.36,69.83 199.99,69.78 199.62,69.72 199.25,69.66 198.89,69.60 198.52,69.52 198.15,69.44 197.79,69.36 197.43,69.27 197.07,69.17 196.71,69.07 196.35,68.97 195.99,68.85 195.64,68.73 195.29,68.61 194.94,68.48"/>
  <edge id="e_66" from="n_r6" to="n_r5" length="30" numLanes="2" type="edgeType" shape="194.94,68.48 194.14,68.16 193.35,67.81 192.58,67.43 191.83,67.02 191.08,66.58 190.36,66.12 189.65,65.63 188.96,65.12 188.30,64.58 187.65,64.01 187.02,63.43 186.41,62.82 185.83,62.18 185.28,61.53 184.74,60.85 184.23,60.16 183.75,59.45 183.30,58.72 182.87,57.97 182.47,57.21 182.10,56.44 181.75,55.65 181.44,54.85 181.16,54.04 180.90,53.22 180.68,52.39 180.49,51.55 180.33,50.70 180.20,49.85 180.10,49.00 180.04,48.14 180.01,47.28 180.00,46.42 180.03,45.56 180.09,44.71 180.19,43.85 180.31,43.00 180.47,42.16 180.66,41.32"/>
  <edge id="e_67" from="n_r8" to="n_s9" length="25.59936010812551" numLanes="1" type="edgeType" shape="214.52,67.32 213.99,67.70 213.47,68.10 212.96,68.51 212.46,68.94 211.97,69.37 211.49,69.82 211.02,70.28 210.56,70.75 210.12,71.23 209.68,71.72 209.26,72.23 208.85,72.74 208.45,73.26 208.07,73.80 207.70,74.34 207.34,74.89 207.00,75.45 206.67,76.02 206.35,76.59 206.05,77.17 205.76,77.76 205.49,78.36 205.23,78.96 204.99,79.57 204.76,80.19 204.55,80.81 204.35,81.44 204.17,82.07 204.00,82.70 203.85,83.34 203.71,83.98 203.59,84.63 203.49,85.28 203.40,85.93 203.33,86.58 203.27,87.23 203.23,87.89 203.21,88.54 203.20,89.20"/>
  <edge id="e_68" from="n_s9" to="n_r6" length="16.799750129055987" numLanes="1" type="edgeType" shape="203.20,90.80 203.20,90.37 203.18,89.94 203.16,89.51 203.13,89.08 203.10,88.65 203.05,88.22 203.00,87.79 202.94,87.37 202.87,86.94 202.79,86.52 202.71,86.10 202.62,85.67 202.52,85.26 202.41,84.84 202.29,84.42 202.17,84.01 202.03,83.60 201.89,83.19 201.75,82.79 201.59,82.39 201.43,81.99 201.26,81.59 201.08,81.20 200.90,80.81 200.70,80.43 200.50,80.05 200.30,79.67 200.08,79.29 199.86,78.92 199.63,78.56 199.40,78.20 199.16,77.84 198.91,77.49 198.66,77.14 198.39,76.80 198.13,76.46 197.85,76.13 197.57,75.80 197.29,75.48"/>
  <edge id="e_69" from="n_b6" to="n_i6" length="21.19999999999999" numLanes="1" type="edgeType"/>
  <edge id="e_70" from="n_i6" to="n_b6" length="21.19999999999999" numLanes="1" type="edgeType"/>
  <edge id="e_71" from="n_s9" to="n_i6" length="21.19999999999999" numLanes="1" type="edgeType"/>
  <edge id="e_72" from="n_i6" to="n_s9" length="21.19999999999999" numLanes="1" type="edgeType"/>
  <edge id="e_73" from="n_i6" to="n_i7" length="40.0" numLanes="1" type="edgeType"/>
  <edge id="e_74" from="n_i7" to="n_i6" length="40.0" numLanes="1" type="edgeType"/>
  <edge id="e_75" from="n_i7" to="n_i8" length="46.0" numLanes="1" type="edgeType"/>
  <edge id="e_76" from="n_i8" to="n_i7" length="46.0" numLanes="1" type="edgeType"/>
  <edge id="e_77" from="n_i8" to="n_i9" length="34.0" numLanes="1" type="edgeType"/>
  <edge id="e_78" from="n_i9" to="n_i8" length="34.0" numLanes="1" type="edgeType"/>
  <edge id="e_79" from="n_i9" to="n_i5" length="81.19999999999999" numLanes="1" type="edgeType"/>
  <edge id="e_80" from="n_i7" to="n_s10" length="33.92690734161387" numLanes="1" type="edgeType" shape="203.20,150.00 204.07,150.02 204.94,150.07 205.80,150.16 206.66,150.28 207.52,150.44 208.37,150.63 209.21,150.85 210.04,151.11 210.86,151.40 211.67,151.73 212.46,152.09 213.24,152.47 214.00,152.89 214.74,153.34 215.47,153.82 216.18,154.33 216.86,154.87 217.52,155.43 218.16,156.02 218.78,156.64 219.37,157.28 219.93,157.94 220.47,158.62 220.98,159.33 221.46,160.06 221.91,160.80 222.33,161.56 222.71,162.34 223.07,163.13 223.40,163.94 223.69,164.76 223.95,165.59 224.17,166.43 224.36,167.28 224.52,168.14 224.64,169.00 224.73,169.86 224.78,170.73 224.80,171.60"/>
  <edge id="e_81" from="n_i9" to="n_s11" length="33.92690734161387" numLanes="1" type="edgeType" shape="203.20,230.00 204.07,229.98 204.94,229.93 205.80,229.84 206.66,229.72 207.52,229.56 208.37,229.37 209.21,229.15 210.04,228.89 210.86,228.60 211.67,228.27 212.46,227.91 213.24,227.53 214.00,227.11 214.74,226.66 215.47,226.18 216.18,225.67 216.86,225.13 217.52,224.57 218.16,223.98 218.78,223.36 219.37,222.72 219.93,222.06 220.47,221.38 220.98,220.67 221.46,219.94 221.91,219.20 222.33,218.44 222.71,217.66 223.07,216.87 223.40,216.06 223.69,215.24 223.95,214.41 224.17,213.57 224.36,212.72 224.52,211.86 224.64,211.00 224.73,210.14 224.78,209.27 224.80,208.40"/>
  <edge id="e_82" from="n_s11" to="n_i9" length="33.92690734161387" numLanes="1" type="edgeType" shape="224.80,208.40 224.78,209.27 224.73,210.14 224.64,211.00 224.52,211.86 224.36,212.72 224.17,213.57 223.95,214.41 223.69,215.24 223.40,216.06 223.07,216.87 222.71,217.66 222.33,218.44 221.91,219.20 221.46,219.94 220.98,220.67 220.47,221.38 219.93,222.06 219.37,222.72 218.78,223.36 218.16,223.98 217.52,224.57 216.86,225.13 216.18,225.67 215.47,226.18 214.74,226.66 214.00,227.11 213.24,227.53 212.46,227.91 211.67,228.27 210.86,228.60 210.04,228.89 209.21,229.15 208.37,229.37 207.52,229.56 206.66,229.72 205.80,229.84 204.94,229.93 204.07,229.98 203.20,230.00"/>
  <edge id="e_83" from="n_s10" to="n_s11" length="36.400000000000006" numLanes="1" type="edgeType"/>
  <edge id="e_84" from="n_s11" to="n_s10" length="36.400000000000006" numLanes="1" type="edgeType"/>
  <edge id="e_85" from="n_s10" to="n_i7" length="33.92690734161387" numLanes="1" type="edgeType" shape="224.80,171.60 224.78,170.73 224.73,169.86 224.64,169.00 224.52,168.14 224.36,167.28 224.17,166.43 223.95,165.59 223.69,164.76 223.40,163.94 223.07,163.13 222.71,162.34 222.33,161.56 221.91,160.80 221.46,160.06 220.98,159.33 220.47,158.62 219.93,157.94 219.37,157.28 218.78,156.64 218.16,156.02 217.52,155.43 216.86,154.87 216.18,154.33 215.47,153.82 214.74,153.34 214.00,152.89 213.24,152.47 212.46,152.09 211.67,151.73 210.86,151.40 210.04,151.11 209.21,150.85 208.37,150.63 207.52,150.44 206.66,150.28 205.80,150.16 204.94,150.07 204.07,150.02 203.20,150.00"/>
  <edge id="e_86" from="n_i8" to="n_m5" length="35.19999999999999" numLanes="1" type="edgeType"/>
  <edge id="e_87" from="n_m2" to="n_i3" length="43.599999999999994" numLanes="2" type="edgeType"/>
  <edge id="e_88" from="n_i3" to="n_m2" length="43.599999999999994" numLanes="2" type="edgeType"/>
  <edge id="e_89" from="n_s14" to="n_i7" length="13.199999999999989" numLanes="1" type="edgeType"/>
  <edge id="e_90" from="n_i7" to="n_s14" length="13.199999999999989" numLanes="1" type="edgeType"/>
  <edge id="e_91" from="n_r5" to="n_r7" length="5" numLanes="2" type="edgeType" shape="180.73,41.03 180.99,40.09 181.29,39.17 181.63,38.26 182.01,37.36 182.42,36.48 182.87,35.62 183.36,34.78 183.88,33.96 184.43,33.16 185.02,32.39 185.64,31.64 186.29,30.92 186.97,30.22 187.68,29.56 188.41,28.92 189.17,28.32 189.96,27.75 190.77,27.21 191.60,26.71 192.45,26.24 193.32,25.81 194.21,25.41 195.11,25.06 196.03,24.74 196.96,24.45 197.90,24.21 198.85,24.01 199.81,23.85 200.77,23.73 201.74,23.65 202.71,23.61 203.69,23.61 204.66,23.65 205.63,23.73 206.59,23.85 207.55,24.01 208.50,24.21 209.44,24.45 210.37,24.74"/>
  <edge id="e_92" from="n_r3" to="n_r1" length="15.31818668682921" numLanes="2" type="edgeType" shape="44.00,56.83 43.63,56.98 43.27,57.12 42.90,57.25 42.52,57.37 42.15,57.49 41.77,57.60 41.39,57.70 41.01,57.80 40.63,57.89 40.25,57.97 39.86,58.05 39.47,58.11 39.08,58.17 38.70,58.23 38.31,58.27 37.91,58.31 37.52,58.35 37.13,58.37 36.74,58.39 36.35,58.40 35.95,58.40 35.56,58.40 35.17,58.38 34.78,58.36 34.38,58.34 33.99,58.30 33.60,58.26 33.21,58.22 32.82,58.16 32.44,58.10 32.05,58.03 31.66,57.95 31.28,57.87 30.90,57.78 30.52,57.68 30.14,57.57 29.76,57.46 29.39,57.34 29.02,57.22"/>
  <edge id="e_93" from="n_s7_l" to="n_s7_r" length="17.600000000000023" numLanes="2" type="edgeType"/>
  <edge id="e_94" from="n_s7_r" to="n_s7_l" length="17.600000000000023" numLanes="2" type="edgeType"/>
</edges>
