<?xml version='1.0' encoding='UTF-8'?>
<edges xmlns:xsi="http://www.w3.org/2001/XMLSchema-instance" xsi:noNamespaceSchemaLocation="http://sumo.dlr.de/xsd/edges_file.xsd">
  <edge id="edge0" numLanes="1" speed="30" from="bottom" to="right" length="62.83185307179586" shape="0.00,-40.00 1.61,-39.97 3.22,-39.87 4.82,-39.71 6.42,-39.48 8.00,-39.19 9.57,-38.84 11.13,-38.42 12.67,-37.94 14.18,-37.40 15.68,-36.80 17.15,-36.14 18.59,-35.42 20.00,-34.64 21.38,-33.81 22.72,-32.92 24.03,-31.98 25.30,-30.98 26.52,-29.94 27.71,-28.85 28.85,-27.71 29.94,-26.52 30.98,-25.30 31.98,-24.03 32.92,-22.72 33.81,-21.38 34.64,-20.00 35.42,-18.59 36.14,-17.15 36.80,-15.68 37.40,-14.18 37.94,-12.67 38.42,-11.13 38.84,-9.57 39.19,-8.00 39.48,-6.42 39.71,-4.82 39.87,-3.22 39.97,-1.61 40.00,0.00"/>
  <edge id="edge1" numLanes="1" speed="30" from="right" to="top" length="62.83185307179586" shape="40.00,0.00 39.97,1.61 39.87,3.22 39.71,4.82 39.48,6.42 39.19,8.00 38.84,9.57 38.42,11.13 37.94,12.67 37.40,14.18 36.80,15.68 36.14,17.15 35.42,18.59 34.64,20.00 33.81,21.38 32.92,22.72 31.98,24.03 30.98,25.30 29.94,26.52 28.85,27.71 27.71,28.85 26.52,29.94 25.30,30.98 24.03,31.98 22.72,32.92 21.38,33.81 20.00,34.64 18.59,35.42 17.15,36.14 15.68,36.80 14.18,37.40 12.67,37.94 11.13,38.42 9.57,38.84 8.00,39.19 6.42,39.48 4.82,39.71 3.22,39.87 1.61,39.97 0.00,40.00"/>
  <edge id="edge2" numLanes="1" speed="30" from="top" to="left" length="62.83185307179586" shape="0.00,40.00 -1.61,39.97 -3.22,39.87 -4.82,39.71 -6.42,39.48 -8.00,39.19 -9.57,38.84 -11.13,38.42 -12.67,37.94 -14.18,37.40 -15.68,36.80 -17.15,36.14 -18.59,35.42 -20.00,34.64 -21.38,33.81 -22.72,32.92 -24.03,31.98 -25.30,30.98 -26.52,29.94 -27.71,28.85 -28.85,27.71 -29.94,26.52 -30.98,25.30 -31.98,24.03 -32.92,22.72 -33.81,21.38 -34.64,20.00 -35.42,18.59 -36.14,17.15 -36.80,15.68 -37.40,14.18 -37.94,12.67 -38.42,11.13 -38.84,9.57 -39.19,8.00 -39.48,6.42 -39.71,4.82 -39.87,3.22 -39.97,1.61 -40.00,0.00"/>
  <edge id="edge3" numLanes="1" speed="30" from="left" to="bottom" length="62.83185307179586" shape="-40.00,0.00 -39.97,-1.61 -39.87,-3.22 -39.71,-4.82 -39.48,-6.42 -39.19,-8.00 -38.84,-9.57 -38.42,-11.13 -37.94,-12.67 -37.40,-14.18 -36.80,-15.68 -36.14,-17.15 -35.42,-18.59 -34.64,-20.00 -33.81,-21.38 -32.92,-22.72 -31.98,-24.03 -30.98,-25.30 -29.94,-26.52 -28.85,-27.71 -27.71,-28.85 -26.52,-29.94 -25.30,-30.98 -24.03,-31.98 -22.72,-32.92 -21.38,-33.81 -20.00,-34.64 -18.59,-35.42 -17.15,-36.14 -15.68,-36.80 -14.18,-37.40 -12.67,-37.94 -11.13,-38.42 -9.57,-38.84 -8.00,-39.19 -6.42,-39.48 -4.82,-39.71 -3.22,-39.87 -1.61,-39.97 -0.00,-40.00"/>
</edges>
