<?xml version='1.0' encoding='UTF-8'?>
<edges xmlns:xsi="http://www.w3.org/2001/XMLSchema-instance" xsi:noNamespaceSchemaLocation="http://sumo.dlr.de/xsd/edges_file.xsd">
  <edge id="bottom" type="edgeType" from="bottom" to="right" length="57.25" shape="0.00,-36.45 1.47,-36.42 2.93,-36.33 4.39,-36.18 5.85,-35.97 7.29,-35.71 8.72,-35.39 10.14,-35.01 11.54,-34.57 12.92,-34.08 14.29,-33.53 15.62,-32.93 16.94,-32.27 18.22,-31.56 19.48,-30.80 20.70,-29.99 21.89,-29.14 23.05,-28.23 24.17,-27.28 25.25,-26.29 26.29,-25.25 27.28,-24.17 28.23,-23.05 29.14,-21.89 29.99,-20.70 30.80,-19.48 31.56,-18.22 32.27,-16.94 32.93,-15.62 33.53,-14.29 34.08,-12.92 34.57,-11.54 35.01,-10.14 35.39,-8.72 35.71,-7.29 35.97,-5.85 36.18,-4.39 36.33,-2.93 36.42,-1.47 36.45,0.00"/>
  <edge id="right" type="edgeType" from="right" to="top" length="57.25" shape="36.45,0.00 36.42,1.47 36.33,2.93 36.18,4.39 35.97,5.85 35.71,7.29 35.39,8.72 35.01,10.14 34.57,11.54 34.08,12.92 33.53,14.29 32.93,15.62 32.27,16.94 31.56,18.22 30.80,19.48 29.99,20.70 29.14,21.89 28.23,23.05 27.28,24.17 26.29,25.25 25.25,26.29 24.17,27.28 23.05,28.23 21.89,29.14 20.70,29.99 19.48,30.80 18.22,31.56 16.94,32.27 15.62,32.93 14.29,33.53 12.92,34.08 11.54,34.57 10.14,35.01 8.72,35.39 7.29,35.71 5.85,35.97 4.39,36.18 2.93,36.33 1.47,36.42 0.00,36.45"/>
  <edge id="top" type="edgeType" from="top" to="left" length="57.25" shape="0.00,36.45 -1.47,36.42 -2.93,36.33 -4.39,36.18 -5.85,35.97 -7.29,35.71 -8.72,35.39 -10.14,35.01 -11.54,34.57 -12.92,34.08 -14.29,33.53 -15.62,32.93 -16.94,32.27 -18.22,31.56 -19.48,30.80 -20.70,29.99 -21.89,29.14 -23.05,28.23 -24.17,27.28 -25.25,26.29 -26.29,25.25 -27.28,24.17 -28.23,23.05 -29.14,21.89 -29.99,20.70 -30.80,19.48 -31.56,18.22 -32.27,16.94 -32.93,15.62 -33.53,14.29 -34.08,12.92 -34.57,11.54 -35.01,10.14 -35.39,8.72 -35.71,7.29 -35.97,5.85 -36.18,4.39 -36.33,2.93 -36.42,1.47 -36.45,0.00"/>
  <edge id="left" type="edgeType" from="left" to="bottom" length="57.25" shape="-36.45,0.00 -36.42,-1.47 -36.33,-2.93 -36.18,-4.39 -35.97,-5.85 -35.71,-7.29 -35.39,-8.72 -35.01,-10.14 -34.57,-11.54 -34.08,-12.92 -33.53,-14.29 -32.93,-15.62 -32.27,-16.94 -31.56,-18.22 -30.80,-19.48 -29.99,-20.70 -29.14,-21.89 -28.23,-23.05 -27.28,-24.17 -26.29,-25.25 -25.25,-26.29 -24.17,-27.28 -23.05,-28.23 -21.89,-29.14 -20.70,-29.99 -19.48,-30.80 -18.22,-31.56 -16.94,-32.27 -15.62,-32.93 -14.29,-33.53 -12.92,-34.08 -11.54,-34.57 -10.14,-35.01 -8.72,-35.39 -7.29,-35.71 -5.85,-35.97 -4.39,-36.18 -2.93,-36.33 -1.47,-36.42 -0.00,-36.45"/>
</edges>
