<?xml version='1.0' encoding='UTF-8'?>
<edges xmlns:xsi="http://www.w3.org/2001/XMLSchema-instance" xsi:noNamespaceSchemaLocation="http://sumo.dlr.de/xsd/edges_file.xsd">
  <edge id="bottom" type="edgeType" from="bottom" to="right" length="61.25" shape="0.00,-38.99 1.57,-38.96 3.14,-38.87 4.70,-38.71 6.25,-38.49 7.80,-38.20 9.33,-37.86 10.85,-37.45 12.35,-36.99 13.83,-36.46 15.28,-35.87 16.72,-35.23 18.12,-34.53 19.50,-33.77 20.84,-32.96 22.15,-32.09 23.42,-31.17 24.66,-30.20 25.86,-29.19 27.01,-28.12 28.12,-27.01 29.19,-25.86 30.20,-24.66 31.17,-23.42 32.09,-22.15 32.96,-20.84 33.77,-19.50 34.53,-18.12 35.23,-16.72 35.87,-15.28 36.46,-13.83 36.99,-12.35 37.45,-10.85 37.86,-9.33 38.20,-7.80 38.49,-6.25 38.71,-4.70 38.87,-3.14 38.96,-1.57 38.99,0.00"/>
  <edge id="right" type="edgeType" from="right" to="top" length="61.25" shape="38.99,0.00 38.96,1.57 38.87,3.14 38.71,4.70 38.49,6.25 38.20,7.80 37.86,9.33 37.45,10.85 36.99,12.35 36.46,13.83 35.87,15.28 35.23,16.72 34.53,18.12 33.77,19.50 32.96,20.84 32.09,22.15 31.17,23.42 30.20,24.66 29.19,25.86 28.12,27.01 27.01,28.12 25.86,29.19 24.66,30.20 23.42,31.17 22.15,32.09 20.84,32.96 19.50,33.77 18.12,34.53 16.72,35.23 15.28,35.87 13.83,36.46 12.35,36.99 10.85,37.45 9.33,37.86 7.80,38.20 6.25,38.49 4.70,38.71 3.14,38.87 1.57,38.96 0.00,38.99"/>
  <edge id="top" type="edgeType" from="top" to="left" length="61.25" shape="0.00,38.99 -1.57,38.96 -3.14,38.87 -4.70,38.71 -6.25,38.49 -7.80,38.20 -9.33,37.86 -10.85,37.45 -12.35,36.99 -13.83,36.46 -15.28,35.87 -16.72,35.23 -18.12,34.53 -19.50,33.77 -20.84,32.96 -22.15,32.09 -23.42,31.17 -24.66,30.20 -25.86,29.19 -27.01,28.12 -28.12,27.01 -29.19,25.86 -30.20,24.66 -31.17,23.42 -32.09,22.15 -32.96,20.84 -33.77,19.50 -34.53,18.12 -35.23,16.72 -35.87,15.28 -36.46,13.83 -36.99,12.35 -37.45,10.85 -37.86,9.33 -38.20,7.80 -38.49,6.25 -38.71,4.70 -38.87,3.14 -38.96,1.57 -38.99,0.00"/>
  <edge id="left" type="edgeType" from="left" to="bottom" length="61.25" shape="-38.99,0.00 -38.96,-1.57 -38.87,-3.14 -38.71,-4.70 -38.49,-6.25 -38.20,-7.80 -37.86,-9.33 -37.45,-10.85 -36.99,-12.35 -36.46,-13.83 -35.87,-15.28 -35.23,-16.72 -34.53,-18.12 -33.77,-19.50 -32.96,-20.84 -32.09,-22.15 -31.17,-23.42 -30.20,-24.66 -29.19,-25.86 -28.12,-27.01 -27.01,-28.12 -25.86,-29.19 -24.66,-30.20 -23.42,-31.17 -22.15,-32.09 -20.84,-32.96 -19.50,-33.77 -18.12,-34.53 -16.72,-35.23 -15.28,-35.87 -13.83,-36.46 -12.35,-36.99 -10.85,-37.45 -9.33,-37.86 -7.80,-38.20 -6.25,-38.49 -4.70,-38.71 -3.14,-38.87 -1.57,-38.96 -0.00,-38.99"/>
</edges>
