<?xml version='1.0' encoding='UTF-8'?>
<edges xmlns:xsi="http://www.w3.org/2001/XMLSchema-instance" xsi:noNamespaceSchemaLocation="http://sumo.dlr.de/xsd/edges_file.xsd">
  <edge id="bottom" type="edgeType" from="bottom" to="right" length="65.75" shape="0.00,-41.86 1.69,-41.82 3.37,-41.72 5.05,-41.55 6.71,-41.32 8.37,-41.01 10.02,-40.64 11.65,-40.21 13.26,-39.70 14.84,-39.14 16.41,-38.51 17.94,-37.82 19.45,-37.06 20.93,-36.25 22.37,-35.38 23.78,-34.45 25.15,-33.46 26.47,-32.42 27.76,-31.33 29.00,-30.19 30.19,-29.00 31.33,-27.76 32.42,-26.47 33.46,-25.15 34.45,-23.78 35.38,-22.37 36.25,-20.93 37.06,-19.45 37.82,-17.94 38.51,-16.41 39.14,-14.84 39.70,-13.26 40.21,-11.65 40.64,-10.02 41.01,-8.37 41.32,-6.71 41.55,-5.05 41.72,-3.37 41.82,-1.69 41.86,0.00"/>
  <edge id="right" type="edgeType" from="right" to="top" length="65.75" shape="41.86,0.00 41.82,1.69 41.72,3.37 41.55,5.05 41.32,6.71 41.01,8.37 40.64,10.02 40.21,11.65 39.70,13.26 39.14,14.84 38.51,16.41 37.82,17.94 37.06,19.45 36.25,20.93 35.38,22.37 34.45,23.78 33.46,25.15 32.42,26.47 31.33,27.76 30.19,29.00 29.00,30.19 27.76,31.33 26.47,32.42 25.15,33.46 23.78,34.45 22.37,35.38 20.93,36.25 19.45,37.06 17.94,37.82 16.41,38.51 14.84,39.14 13.26,39.70 11.65,40.21 10.02,40.64 8.37,41.01 6.71,41.32 5.05,41.55 3.37,41.72 1.69,41.82 0.00,41.86"/>
  <edge id="top" type="edgeType" from="top" to="left" length="65.75" shape="0.00,41.86 -1.69,41.82 -3.37,41.72 -5.05,41.55 -6.71,41.32 -8.37,41.01 -10.02,40.64 -11.65,40.21 -13.26,39.70 -14.84,39.14 -16.41,38.51 -17.94,37.82 -19.45,37.06 -20.93,36.25 -22.37,35.38 -23.78,34.45 -25.15,33.46 -26.47,32.42 -27.76,31.33 -29.00,30.19 -30.19,29.00 -31.33,27.76 -32.42,26.47 -33.46,25.15 -34.45,23.78 -35.38,22.37 -36.25,20.93 -37.06,19.45 -37.82,17.94 -38.51,16.41 -39.14,14.84 -39.70,13.26 -40.21,11.65 -40.64,10.02 -41.01,8.37 -41.32,6.71 -41.55,5.05 -41.72,3.37 -41.82,1.69 -41.86,0.00"/>
  <edge id="left" type="edgeType" from="left" to="bottom" length="65.75" shape="-41.86,0.00 -41.82,-1.69 -41.72,-3.37 -41.55,-5.05 -41.32,-6.71 -41.01,-8.37 -40.64,-10.02 -40.21,-11.65 -39.70,-13.26 -39.14,-14.84 -38.51,-16.41 -37.82,-17.94 -37.06,-19.45 -36.25,-20.93 -35.38,-22.37 -34.45,-23.78 -33.46,-25.15 -32.42,-26.47 -31.33,-27.76 -30.19,-29.00 -29.00,-30.19 -27.76,-31.33 -26.47,-32.42 -25.15,-33.46 -23.78,-34.45 -22.37,-35.38 -20.93,-36.25 -19.45,-37.06 -17.94,-37.82 -16.41,-38.51 -14.84,-39.14 -13.26,-39.70 -11.65,-40.21 -10.02,-40.64 -8.37,-41.01 -6.71,-41.32 -5.05,-41.55 -3.37,-41.72 -1.69,-41.82 -0.00,-41.86"/>
</edges>
