<?xml version='1.0' encoding='UTF-8'?>
<edges xmlns:xsi="http://www.w3.org/2001/XMLSchema-instance" xsi:noNamespaceSchemaLocation="http://sumo.dlr.de/xsd/edges_file.xsd">
  <edge id="bottom" type="edgeType" from="bottom" to="right" length="61.0" shape="0.00,-38.83 1.56,-38.80 3.12,-38.71 4.68,-38.55 6.23,-38.33 7.77,-38.05 9.29,-37.71 10.80,-37.30 12.30,-36.84 13.77,-36.31 15.22,-35.73 16.65,-35.08 18.05,-34.39 19.42,-33.63 20.76,-32.82 22.06,-31.96 23.33,-31.05 24.56,-30.08 25.75,-29.07 26.90,-28.01 28.01,-26.90 29.07,-25.75 30.08,-24.56 31.05,-23.33 31.96,-22.06 32.82,-20.76 33.63,-19.42 34.39,-18.05 35.08,-16.65 35.73,-15.22 36.31,-13.77 36.84,-12.30 37.30,-10.80 37.71,-9.29 38.05,-7.77 38.33,-6.23 38.55,-4.68 38.71,-3.12 38.80,-1.56 38.83,0.00"/>
  <edge id="right" type="edgeType" from="right" to="top" length="61.0" shape="38.83,0.00 38.80,1.56 38.71,3.12 38.55,4.68 38.33,6.23 38.05,7.77 37.71,9.29 37.30,10.80 36.84,12.30 36.31,13.77 35.73,15.22 35.08,16.65 34.39,18.05 33.63,19.42 32.82,20.76 31.96,22.06 31.05,23.33 30.08,24.56 29.07,25.75 28.01,26.90 26.90,28.01 25.75,29.07 24.56,30.08 23.33,31.05 22.06,31.96 20.76,32.82 19.42,33.63 18.05,34.39 16.65,35.08 15.22,35.73 13.77,36.31 12.30,36.84 10.80,37.30 9.29,37.71 7.77,38.05 6.23,38.33 4.68,38.55 3.12,38.71 1.56,38.80 0.00,38.83"/>
  <edge id="top" type="edgeType" from="top" to="left" length="61.0" shape="0.00,38.83 -1.56,38.80 -3.12,38.71 -4.68,38.55 -6.23,38.33 -7.77,38.05 -9.29,37.71 -10.80,37.30 -12.30,36.84 -13.77,36.31 -15.22,35.73 -16.65,35.08 -18.05,34.39 -19.42,33.63 -20.76,32.82 -22.06,31.96 -23.33,31.05 -24.56,30.08 -25.75,29.07 -26.90,28.01 -28.01,26.90 -29.07,25.75 -30.08,24.56 -31.05,23.33 -31.96,22.06 -32.82,20.76 -33.63,19.42 -34.39,18.05 -35.08,16.65 -35.73,15.22 -36.31,13.77 -36.84,12.30 -37.30,10.80 -37.71,9.29 -38.05,7.77 -38.33,6.23 -38.55,4.68 -38.71,3.12 -38.80,1.56 -38.83,0.00"/>
  <edge id="left" type="edgeType" from="left" to="bottom" length="61.0" shape="-38.83,0.00 -38.80,-1.56 -38.71,-3.12 -38.55,-4.68 -38.33,-6.23 -38.05,-7.77 -37.71,-9.29 -37.30,-10.80 -36.84,-12.30 -36.31,-13.77 -35.73,-15.22 -35.08,-16.65 -34.39,-18.05 -33.63,-19.42 -32.82,-20.76 -31.96,-22.06 -31.05,-23.33 -30.08,-24.56 -29.07,-25.75 -28.01,-26.90 -26.90,-28.01 -25.75,-29.07 -24.56,-30.08 -23.33,-31.05 -22.06,-31.96 -20.76,-32.82 -19.42,-33.63 -18.05,-34.39 -16.65,-35.08 -15.22,-35.73 -13.77,-36.31 -12.30,-36.84 -10.80,-37.30 -9.29,-37.71 -7.77,-38.05 -6.23,-38.33 -4.68,-38.55 -3.12,-38.71 -1.56,-38.80 -0.00,-38.83"/>
</edges>
