<?xml version='1.0' encoding='UTF-8'?>
<edges xmlns:xsi="http://www.w3.org/2001/XMLSchema-instance" xsi:noNamespaceSchemaLocation="http://sumo.dlr.de/xsd/edges_file.xsd">
  <edge id="bottom" type="edgeType" from="bottom" to="right" length="67.25" shape="0.00,-42.81 1.72,-42.78 3.44,-42.67 5.16,-42.50 6.87,-42.26 8.56,-41.95 10.25,-41.57 11.91,-41.12 13.56,-40.61 15.18,-40.03 16.78,-39.39 18.35,-38.68 19.90,-37.91 21.41,-37.08 22.88,-36.18 24.32,-35.23 25.72,-34.23 27.08,-33.16 28.39,-32.05 29.66,-30.88 30.88,-29.66 32.05,-28.39 33.16,-27.08 34.23,-25.72 35.23,-24.32 36.18,-22.88 37.08,-21.41 37.91,-19.90 38.68,-18.35 39.39,-16.78 40.03,-15.18 40.61,-13.56 41.12,-11.91 41.57,-10.25 41.95,-8.56 42.26,-6.87 42.50,-5.16 42.67,-3.44 42.78,-1.72 42.81,0.00"/>
  <edge id="right" type="edgeType" from="right" to="top" length="67.25" shape="42.81,0.00 42.78,1.72 42.67,3.44 42.50,5.16 42.26,6.87 41.95,8.56 41.57,10.25 41.12,11.91 40.61,13.56 40.03,15.18 39.39,16.78 38.68,18.35 37.91,19.90 37.08,21.41 36.18,22.88 35.23,24.32 34.23,25.72 33.16,27.08 32.05,28.39 30.88,29.66 29.66,30.88 28.39,32.05 27.08,33.16 25.72,34.23 24.32,35.23 22.88,36.18 21.41,37.08 19.90,37.91 18.35,38.68 16.78,39.39 15.18,40.03 13.56,40.61 11.91,41.12 10.25,41.57 8.56,41.95 6.87,42.26 5.16,42.50 3.44,42.67 1.72,42.78 0.00,42.81"/>
  <edge id="top" type="edgeType" from="top" to="left" length="67.25" shape="0.00,42.81 -1.72,42.78 -3.44,42.67 -5.16,42.50 -6.87,42.26 -8.56,41.95 -10.25,41.57 -11.91,41.12 -13.56,40.61 -15.18,40.03 -16.78,39.39 -18.35,38.68 -19.90,37.91 -21.41,37.08 -22.88,36.18 -24.32,35.23 -25.72,34.23 -27.08,33.16 -28.39,32.05 -29.66,30.88 -30.88,29.66 -32.05,28.39 -33.16,27.08 -34.23,25.72 -35.23,24.32 -36.18,22.88 -37.08,21.41 -37.91,19.90 -38.68,18.35 -39.39,16.78 -40.03,15.18 -40.61,13.56 -41.12,11.91 -41.57,10.25 -41.95,8.56 -42.26,6.87 -42.50,5.16 -42.67,3.44 -42.78,1.72 -42.81,0.00"/>
  <edge id="left" type="edgeType" from="left" to="bottom" length="67.25" shape="-42.81,0.00 -42.78,-1.72 -42.67,-3.44 -42.50,-5.16 -42.26,-6.87 -41.95,-8.56 -41.57,-10.25 -41.12,-11.91 -40.61,-13.56 -40.03,-15.18 -39.39,-16.78 -38.68,-18.35 -37.91,-19.90 -37.08,-21.41 -36.18,-22.88 -35.23,-24.32 -34.23,-25.72 -33.16,-27.08 -32.05,-28.39 -30.88,-29.66 -29.66,-30.88 -28.39,-32.05 -27.08,-33.16 -25.72,-34.23 -24.32,-35.23 -22.88,-36.18 -21.41,-37.08 -19.90,-37.91 -18.35,-38.68 -16.78,-39.39 -15.18,-40.03 -13.56,-40.61 -11.91,-41.12 -10.25,-41.57 -8.56,-41.95 -6.87,-42.26 -5.16,-42.50 -3.44,-42.67 -1.72,-42.78 -0.00,-42.81"/>
</edges>
