<?xml version='1.0' encoding='UTF-8'?>
<edges xmlns:xsi="http://www.w3.org/2001/XMLSchema-instance" xsi:noNamespaceSchemaLocation="http://sumo.dlr.de/xsd/edges_file.xsd">
  <edge id="bottom" type="edgeType" from="bottom" to="right" length="66.5" shape="0.00,-42.34 1.70,-42.30 3.41,-42.20 5.10,-42.03 6.79,-41.79 8.47,-41.48 10.13,-41.11 11.78,-40.66 13.41,-40.16 15.01,-39.58 16.59,-38.95 18.15,-38.25 19.67,-37.49 21.17,-36.66 22.63,-35.78 24.05,-34.84 25.43,-33.84 26.77,-32.79 28.07,-31.69 29.33,-30.53 30.53,-29.33 31.69,-28.07 32.79,-26.77 33.84,-25.43 34.84,-24.05 35.78,-22.63 36.66,-21.17 37.49,-19.67 38.25,-18.15 38.95,-16.59 39.58,-15.01 40.16,-13.41 40.66,-11.78 41.11,-10.13 41.48,-8.47 41.79,-6.79 42.03,-5.10 42.20,-3.41 42.30,-1.70 42.34,0.00"/>
  <edge id="right" type="edgeType" from="right" to="top" length="66.5" shape="42.34,0.00 42.30,1.70 42.20,3.41 42.03,5.10 41.79,6.79 41.48,8.47 41.11,10.13 40.66,11.78 40.16,13.41 39.58,15.01 38.95,16.59 38.25,18.15 37.49,19.67 36.66,21.17 35.78,22.63 34.84,24.05 33.84,25.43 32.79,26.77 31.69,28.07 30.53,29.33 29.33,30.53 28.07,31.69 26.77,32.79 25.43,33.84 24.05,34.84 22.63,35.78 21.17,36.66 19.67,37.49 18.15,38.25 16.59,38.95 15.01,39.58 13.41,40.16 11.78,40.66 10.13,41.11 8.47,41.48 6.79,41.79 5.10,42.03 3.41,42.20 1.70,42.30 0.00,42.34"/>
  <edge id="top" type="edgeType" from="top" to="left" length="66.5" shape="0.00,42.34 -1.70,42.30 -3.41,42.20 -5.10,42.03 -6.79,41.79 -8.47,41.48 -10.13,41.11 -11.78,40.66 -13.41,40.16 -15.01,39.58 -16.59,38.95 -18.15,38.25 -19.67,37.49 -21.17,36.66 -22.63,35.78 -24.05,34.84 -25.43,33.84 -26.77,32.79 -28.07,31.69 -29.33,30.53 -30.53,29.33 -31.69,28.07 -32.79,26.77 -33.84,25.43 -34.84,24.05 -35.78,22.63 -36.66,21.17 -37.49,19.67 -38.25,18.15 -38.95,16.59 -39.58,15.01 -40.16,13.41 -40.66,11.78 -41.11,10.13 -41.48,8.47 -41.79,6.79 -42.03,5.10 -42.20,3.41 -42.30,1.70 -42.34,0.00"/>
  <edge id="left" type="edgeType" from="left" to="bottom" length="66.5" shape="-42.34,0.00 -42.30,-1.70 -42.20,-3.41 -42.03,-5.10 -41.79,-6.79 -41.48,-8.47 -41.11,-10.13 -40.66,-11.78 -40.16,-13.41 -39.58,-15.01 -38.95,-16.59 -38.25,-18.15 -37.49,-19.67 -36.66,-21.17 -35.78,-22.63 -34.84,-24.05 -33.84,-25.43 -32.79,-26.77 -31.69,-28.07 -30.53,-29.33 -29.33,-30.53 -28.07,-31.69 -26.77,-32.79 -25.43,-33.84 -24.05,-34.84 -22.63,-35.78 -21.17,-36.66 -19.67,-37.49 -18.15,-38.25 -16.59,-38.95 -15.01,-39.58 -13.41,-40.16 -11.78,-40.66 -10.13,-41.11 -8.47,-41.48 -6.79,-41.79 -5.10,-42.03 -3.41,-42.20 -1.70,-42.30 -0.00,-42.34"/>
</edges>
