<?xml version='1.0' encoding='UTF-8'?>
<edges xmlns:xsi="http://www.w3.org/2001/XMLSchema-instance" xsi:noNamespaceSchemaLocation="http://sumo.dlr.de/xsd/edges_file.xsd">
  <edge id="bottom" type="edgeType" from="bottom" to="right" length="64.25" shape="0.00,-40.90 1.65,-40.87 3.29,-40.77 4.93,-40.60 6.56,-40.37 8.18,-40.08 9.79,-39.71 11.38,-39.29 12.95,-38.80 14.50,-38.24 16.03,-37.63 17.53,-36.95 19.01,-36.22 20.45,-35.42 21.86,-34.57 23.24,-33.66 24.57,-32.70 25.87,-31.68 27.12,-30.62 28.33,-29.50 29.50,-28.33 30.62,-27.12 31.68,-25.87 32.70,-24.57 33.66,-23.24 34.57,-21.86 35.42,-20.45 36.22,-19.01 36.95,-17.53 37.63,-16.03 38.24,-14.50 38.80,-12.95 39.29,-11.38 39.71,-9.79 40.08,-8.18 40.37,-6.56 40.60,-4.93 40.77,-3.29 40.87,-1.65 40.90,0.00"/>
  <edge id="right" type="edgeType" from="right" to="top" length="64.25" shape="40.90,0.00 40.87,1.65 40.77,3.29 40.60,4.93 40.37,6.56 40.08,8.18 39.71,9.79 39.29,11.38 38.80,12.95 38.24,14.50 37.63,16.03 36.95,17.53 36.22,19.01 35.42,20.45 34.57,21.86 33.66,23.24 32.70,24.57 31.68,25.87 30.62,27.12 29.50,28.33 28.33,29.50 27.12,30.62 25.87,31.68 24.57,32.70 23.24,33.66 21.86,34.57 20.45,35.42 19.01,36.22 17.53,36.95 16.03,37.63 14.50,38.24 12.95,38.80 11.38,39.29 9.79,39.71 8.18,40.08 6.56,40.37 4.93,40.60 3.29,40.77 1.65,40.87 0.00,40.90"/>
  <edge id="top" type="edgeType" from="top" to="left" length="64.25" shape="0.00,40.90 -1.65,40.87 -3.29,40.77 -4.93,40.60 -6.56,40.37 -8.18,40.08 -9.79,39.71 -11.38,39.29 -12.95,38.80 -14.50,38.24 -16.03,37.63 -17.53,36.95 -19.01,36.22 -20.45,35.42 -21.86,34.57 -23.24,33.66 -24.57,32.70 -25.87,31.68 -27.12,30.62 -28.33,29.50 -29.50,28.33 -30.62,27.12 -31.68,25.87 -32.70,24.57 -33.66,23.24 -34.57,21.86 -35.42,20.45 -36.22,19.01 -36.95,17.53 -37.63,16.03 -38.24,14.50 -38.80,12.95 -39.29,11.38 -39.71,9.79 -40.08,8.18 -40.37,6.56 -40.60,4.93 -40.77,3.29 -40.87,1.65 -40.90,0.00"/>
  <edge id="left" type="edgeType" from="left" to="bottom" length="64.25" shape="-40.90,0.00 -40.87,-1.65 -40.77,-3.29 -40.60,-4.93 -40.37,-6.56 -40.08,-8.18 -39.71,-9.79 -39.29,-11.38 -38.80,-12.95 -38.24,-14.50 -37.63,-16.03 -36.95,-17.53 -36.22,-19.01 -35.42,-20.45 -34.57,-21.86 -33.66,-23.24 -32.70,-24.57 -31.68,-25.87 -30.62,-27.12 -29.50,-28.33 -28.33,-29.50 -27.12,-30.62 -25.87,-31.68 -24.57,-32.70 -23.24,-33.66 -21.86,-34.57 -20.45,-35.42 -19.01,-36.22 -17.53,-36.95 -16.03,-37.63 -14.50,-38.24 -12.95,-38.80 -11.38,-39.29 -9.79,-39.71 -8.18,-40.08 -6.56,-40.37 -4.93,-40.60 -3.29,-40.77 -1.65,-40.87 -0.00,-40.90"/>
</edges>
