<?xml version='1.0' encoding='UTF-8'?>
<edges xmlns:xsi="http://www.w3.org/2001/XMLSchema-instance" xsi:noNamespaceSchemaLocation="http://sumo.dlr.de/xsd/edges_file.xsd">
  <edge id="bottom" type="edgeType" from="bottom" to="right" length="55.5" shape="0.00,-35.33 1.42,-35.30 2.84,-35.22 4.26,-35.07 5.67,-34.87 7.07,-34.62 8.46,-34.31 9.83,-33.94 11.19,-33.51 12.53,-33.04 13.85,-32.51 15.15,-31.92 16.42,-31.29 17.67,-30.60 18.88,-29.86 20.07,-29.08 21.23,-28.25 22.35,-27.37 23.43,-26.45 24.48,-25.48 25.48,-24.48 26.45,-23.43 27.37,-22.35 28.25,-21.23 29.08,-20.07 29.86,-18.88 30.60,-17.67 31.29,-16.42 31.92,-15.15 32.51,-13.85 33.04,-12.53 33.51,-11.19 33.94,-9.83 34.31,-8.46 34.62,-7.07 34.87,-5.67 35.07,-4.26 35.22,-2.84 35.30,-1.42 35.33,0.00"/>
  <edge id="right" type="edgeType" from="right" to="top" length="55.5" shape="35.33,0.00 35.30,1.42 35.22,2.84 35.07,4.26 34.87,5.67 34.62,7.07 34.31,8.46 33.94,9.83 33.51,11.19 33.04,12.53 32.51,13.85 31.92,15.15 31.29,16.42 30.60,17.67 29.86,18.88 29.08,20.07 28.25,21.23 27.37,22.35 26.45,23.43 25.48,24.48 24.48,25.48 23.43,26.45 22.35,27.37 21.23,28.25 20.07,29.08 18.88,29.86 17.67,30.60 16.42,31.29 15.15,31.92 13.85,32.51 12.53,33.04 11.19,33.51 9.83,33.94 8.46,34.31 7.07,34.62 5.67,34.87 4.26,35.07 2.84,35.22 1.42,35.30 0.00,35.33"/>
  <edge id="top" type="edgeType" from="top" to="left" length="55.5" shape="0.00,35.33 -1.42,35.30 -2.84,35.22 -4.26,35.07 -5.67,34.87 -7.07,34.62 -8.46,34.31 -9.83,33.94 -11.19,33.51 -12.53,33.04 -13.85,32.51 -15.15,31.92 -16.42,31.29 -17.67,30.60 -18.88,29.86 -20.07,29.08 -21.23,28.25 -22.35,27.37 -23.43,26.45 -24.48,25.48 -25.48,24.48 -26.45,23.43 -27.37,22.35 -28.25,21.23 -29.08,20.07 -29.86,18.88 -30.60,17.67 -31.29,16.42 -31.92,15.15 -32.51,13.85 -33.04,12.53 -33.51,11.19 -33.94,9.83 -34.31,8.46 -34.62,7.07 -34.87,5.67 -35.07,4.26 -35.22,2.84 -35.30,1.42 -35.33,0.00"/>
  <edge id="left" type="edgeType" from="left" to="bottom" length="55.5" shape="-35.33,0.00 -35.30,-1.42 -35.22,-2.84 -35.07,-4.26 -34.87,-5.67 -34.62,-7.07 -34.31,-8.46 -33.94,-9.83 -33.51,-11.19 -33.04,-12.53 -32.51,-13.85 -31.92,-15.15 -31.29,-16.42 -30.60,-17.67 -29.86,-18.88 -29.08,-20.07 -28.25,-21.23 -27.37,-22.35 -26.45,-23.43 -25.48,-24.48 -24.48,-25.48 -23.43,-26.45 -22.35,-27.37 -21.23,-28.25 -20.07,-29.08 -18.88,-29.86 -17.67,-30.60 -16.42,-31.29 -15.15,-31.92 -13.85,-32.51 -12.53,-33.04 -11.19,-33.51 -9.83,-33.94 -8.46,-34.31 -7.07,-34.62 -5.67,-34.87 -4.26,-35.07 -2.84,-35.22 -1.42,-35.30 -0.00,-35.33"/>
</edges>
