<?xml version='1.0' encoding='UTF-8'?>
<edges xmlns:xsi="http://www.w3.org/2001/XMLSchema-instance" xsi:noNamespaceSchemaLocation="http://sumo.dlr.de/xsd/edges_file.xsd">
  <edge id="bottom" type="edgeType" from="bottom" to="right" length="63.25" shape="0.00,-40.27 1.62,-40.23 3.24,-40.14 4.85,-39.97 6.46,-39.74 8.05,-39.45 9.64,-39.10 11.20,-38.68 12.75,-38.19 14.28,-37.65 15.78,-37.04 17.26,-36.38 18.71,-35.65 20.13,-34.87 21.52,-34.03 22.87,-33.14 24.19,-32.19 25.47,-31.19 26.70,-30.14 27.89,-29.04 29.04,-27.89 30.14,-26.70 31.19,-25.47 32.19,-24.19 33.14,-22.87 34.03,-21.52 34.87,-20.13 35.65,-18.71 36.38,-17.26 37.04,-15.78 37.65,-14.28 38.19,-12.75 38.68,-11.20 39.10,-9.64 39.45,-8.05 39.74,-6.46 39.97,-4.85 40.14,-3.24 40.23,-1.62 40.27,0.00"/>
  <edge id="right" type="edgeType" from="right" to="top" length="63.25" shape="40.27,0.00 40.23,1.62 40.14,3.24 39.97,4.85 39.74,6.46 39.45,8.05 39.10,9.64 38.68,11.20 38.19,12.75 37.65,14.28 37.04,15.78 36.38,17.26 35.65,18.71 34.87,20.13 34.03,21.52 33.14,22.87 32.19,24.19 31.19,25.47 30.14,26.70 29.04,27.89 27.89,29.04 26.70,30.14 25.47,31.19 24.19,32.19 22.87,33.14 21.52,34.03 20.13,34.87 18.71,35.65 17.26,36.38 15.78,37.04 14.28,37.65 12.75,38.19 11.20,38.68 9.64,39.10 8.05,39.45 6.46,39.74 4.85,39.97 3.24,40.14 1.62,40.23 0.00,40.27"/>
  <edge id="top" type="edgeType" from="top" to="left" length="63.25" shape="0.00,40.27 -1.62,40.23 -3.24,40.14 -4.85,39.97 -6.46,39.74 -8.05,39.45 -9.64,39.10 -11.20,38.68 -12.75,38.19 -14.28,37.65 -15.78,37.04 -17.26,36.38 -18.71,35.65 -20.13,34.87 -21.52,34.03 -22.87,33.14 -24.19,32.19 -25.47,31.19 -26.70,30.14 -27.89,29.04 -29.04,27.89 -30.14,26.70 -31.19,25.47 -32.19,24.19 -33.14,22.87 -34.03,21.52 -34.87,20.13 -35.65,18.71 -36.38,17.26 -37.04,15.78 -37.65,14.28 -38.19,12.75 -38.68,11.20 -39.10,9.64 -39.45,8.05 -39.74,6.46 -39.97,4.85 -40.14,3.24 -40.23,1.62 -40.27,0.00"/>
  <edge id="left" type="edgeType" from="left" to="bottom" length="63.25" shape="-40.27,0.00 -40.23,-1.62 -40.14,-3.24 -39.97,-4.85 -39.74,-6.46 -39.45,-8.05 -39.10,-9.64 -38.68,-11.20 -38.19,-12.75 -37.65,-14.28 -37.04,-15.78 -36.38,-17.26 -35.65,-18.71 -34.87,-20.13 -34.03,-21.52 -33.14,-22.87 -32.19,-24.19 -31.19,-25.47 -30.14,-26.70 -29.04,-27.89 -27.89,-29.04 -26.70,-30.14 -25.47,-31.19 -24.19,-32.19 -22.87,-33.14 -21.52,-34.03 -20.13,-34.87 -18.71,-35.65 -17.26,-36.38 -15.78,-37.04 -14.28,-37.65 -12.75,-38.19 -11.20,-38.68 -9.64,-39.10 -8.05,-39.45 -6.46,-39.74 -4.85,-39.97 -3.24,-40.14 -1.62,-40.23 -0.00,-40.27"/>
</edges>
