<?xml version='1.0' encoding='UTF-8'?>
<edges xmlns:xsi="http://www.w3.org/2001/XMLSchema-instance" xsi:noNamespaceSchemaLocation="http://sumo.dlr.de/xsd/edges_file.xsd">
  <edge id="bottom" type="edgeType" from="bottom" to="right" length="56.0" shape="0.00,-35.65 1.44,-35.62 2.87,-35.54 4.30,-35.39 5.72,-35.19 7.13,-34.93 8.53,-34.61 9.92,-34.24 11.29,-33.82 12.64,-33.33 13.97,-32.80 15.28,-32.21 16.57,-31.57 17.83,-30.87 19.05,-30.13 20.25,-29.34 21.42,-28.50 22.55,-27.62 23.64,-26.68 24.70,-25.71 25.71,-24.70 26.68,-23.64 27.62,-22.55 28.50,-21.42 29.34,-20.25 30.13,-19.05 30.87,-17.83 31.57,-16.57 32.21,-15.28 32.80,-13.97 33.33,-12.64 33.82,-11.29 34.24,-9.92 34.61,-8.53 34.93,-7.13 35.19,-5.72 35.39,-4.30 35.54,-2.87 35.62,-1.44 35.65,0.00"/>
  <edge id="right" type="edgeType" from="right" to="top" length="56.0" shape="35.65,0.00 35.62,1.44 35.54,2.87 35.39,4.30 35.19,5.72 34.93,7.13 34.61,8.53 34.24,9.92 33.82,11.29 33.33,12.64 32.80,13.97 32.21,15.28 31.57,16.57 30.87,17.83 30.13,19.05 29.34,20.25 28.50,21.42 27.62,22.55 26.68,23.64 25.71,24.70 24.70,25.71 23.64,26.68 22.55,27.62 21.42,28.50 20.25,29.34 19.05,30.13 17.83,30.87 16.57,31.57 15.28,32.21 13.97,32.80 12.64,33.33 11.29,33.82 9.92,34.24 8.53,34.61 7.13,34.93 5.72,35.19 4.30,35.39 2.87,35.54 1.44,35.62 0.00,35.65"/>
  <edge id="top" type="edgeType" from="top" to="left" length="56.0" shape="0.00,35.65 -1.44,35.62 -2.87,35.54 -4.30,35.39 -5.72,35.19 -7.13,34.93 -8.53,34.61 -9.92,34.24 -11.29,33.82 -12.64,33.33 -13.97,32.80 -15.28,32.21 -16.57,31.57 -17.83,30.87 -19.05,30.13 -20.25,29.34 -21.42,28.50 -22.55,27.62 -23.64,26.68 -24.70,25.71 -25.71,24.70 -26.68,23.64 -27.62,22.55 -28.50,21.42 -29.34,20.25 -30.13,19.05 -30.87,17.83 -31.57,16.57 -32.21,15.28 -32.80,13.97 -33.33,12.64 -33.82,11.29 -34.24,9.92 -34.61,8.53 -34.93,7.13 -35.19,5.72 -35.39,4.30 -35.54,2.87 -35.62,1.44 -35.65,0.00"/>
  <edge id="left" type="edgeType" from="left" to="bottom" length="56.0" shape="-35.65,0.00 -35.62,-1.44 -35.54,-2.87 -35.39,-4.30 -35.19,-5.72 -34.93,-7.13 -34.61,-8.53 -34.24,-9.92 -33.82,-11.29 -33.33,-12.64 -32.80,-13.97 -32.21,-15.28 -31.57,-16.57 -30.87,-17.83 -30.13,-19.05 -29.34,-20.25 -28.50,-21.42 -27.62,-22.55 -26.68,-23.64 -25.71,-24.70 -24.70,-25.71 -23.64,-26.68 -22.55,-27.62 -21.42,-28.50 -20.25,-29.34 -19.05,-30.13 -17.83,-30.87 -16.57,-31.57 -15.28,-32.21 -13.97,-32.80 -12.64,-33.33 -11.29,-33.82 -9.92,-34.24 -8.53,-34.61 -7.13,-34.93 -5.72,-35.19 -4.30,-35.39 -2.87,-35.54 -1.44,-35.62 -0.00,-35.65"/>
</edges>
