<?xml version='1.0' encoding='UTF-8'?>
<edges xmlns:xsi="http://www.w3.org/2001/XMLSchema-instance" xsi:noNamespaceSchemaLocation="http://sumo.dlr.de/xsd/edges_file.xsd">
  <edge id="bottom" type="edgeType" from="bottom" to="right" length="66.75" shape="0.00,-42.49 1.71,-42.46 3.42,-42.36 5.12,-42.18 6.82,-41.94 8.50,-41.64 10.17,-41.26 11.82,-40.82 13.46,-40.31 15.07,-39.73 16.66,-39.09 18.22,-38.39 19.75,-37.63 21.25,-36.80 22.71,-35.92 24.14,-34.97 25.53,-33.97 26.88,-32.92 28.18,-31.81 29.44,-30.65 30.65,-29.44 31.81,-28.18 32.92,-26.88 33.97,-25.53 34.97,-24.14 35.92,-22.71 36.80,-21.25 37.63,-19.75 38.39,-18.22 39.09,-16.66 39.73,-15.07 40.31,-13.46 40.82,-11.82 41.26,-10.17 41.64,-8.50 41.94,-6.82 42.18,-5.12 42.36,-3.42 42.46,-1.71 42.49,0.00"/>
  <edge id="right" type="edgeType" from="right" to="top" length="66.75" shape="42.49,0.00 42.46,1.71 42.36,3.42 42.18,5.12 41.94,6.82 41.64,8.50 41.26,10.17 40.82,11.82 40.31,13.46 39.73,15.07 39.09,16.66 38.39,18.22 37.63,19.75 36.80,21.25 35.92,22.71 34.97,24.14 33.97,25.53 32.92,26.88 31.81,28.18 30.65,29.44 29.44,30.65 28.18,31.81 26.88,32.92 25.53,33.97 24.14,34.97 22.71,35.92 21.25,36.80 19.75,37.63 18.22,38.39 16.66,39.09 15.07,39.73 13.46,40.31 11.82,40.82 10.17,41.26 8.50,41.64 6.82,41.94 5.12,42.18 3.42,42.36 1.71,42.46 0.00,42.49"/>
  <edge id="top" type="edgeType" from="top" to="left" length="66.75" shape="0.00,42.49 -1.71,42.46 -3.42,42.36 -5.12,42.18 -6.82,41.94 -8.50,41.64 -10.17,41.26 -11.82,40.82 -13.46,40.31 -15.07,39.73 -16.66,39.09 -18.22,38.39 -19.75,37.63 -21.25,36.80 -22.71,35.92 -24.14,34.97 -25.53,33.97 -26.88,32.92 -28.18,31.81 -29.44,30.65 -30.65,29.44 -31.81,28.18 -32.92,26.88 -33.97,25.53 -34.97,24.14 -35.92,22.71 -36.80,21.25 -37.63,19.75 -38.39,18.22 -39.09,16.66 -39.73,15.07 -40.31,13.46 -40.82,11.82 -41.26,10.17 -41.64,8.50 -41.94,6.82 -42.18,5.12 -42.36,3.42 -42.46,1.71 -42.49,0.00"/>
  <edge id="left" type="edgeType" from="left" to="bottom" length="66.75" shape="-42.49,0.00 -42.46,-1.71 -42.36,-3.42 -42.18,-5.12 -41.94,-6.82 -41.64,-8.50 -41.26,-10.17 -40.82,-11.82 -40.31,-13.46 -39.73,-15.07 -39.09,-16.66 -38.39,-18.22 -37.63,-19.75 -36.80,-21.25 -35.92,-22.71 -34.97,-24.14 -33.97,-25.53 -32.92,-26.88 -31.81,-28.18 -30.65,-29.44 -29.44,-30.65 -28.18,-31.81 -26.88,-32.92 -25.53,-33.97 -24.14,-34.97 -22.71,-35.92 -21.25,-36.80 -19.75,-37.63 -18.22,-38.39 -16.66,-39.09 -15.07,-39.73 -13.46,-40.31 -11.82,-40.82 -10.17,-41.26 -8.50,-41.64 -6.82,-41.94 -5.12,-42.18 -3.42,-42.36 -1.71,-42.46 -0.00,-42.49"/>
</edges>
