<?xml version='1.0' encoding='UTF-8'?>
<edges xmlns:xsi="http://www.w3.org/2001/XMLSchema-instance" xsi:noNamespaceSchemaLocation="http://sumo.dlr.de/xsd/edges_file.xsd">
  <edge id="bottom" type="edgeType" from="bottom" to="right" length="58.75" shape="0.00,-37.40 1.51,-37.37 3.01,-37.28 4.51,-37.13 6.00,-36.92 7.48,-36.65 8.95,-36.31 10.41,-35.92 11.84,-35.48 13.26,-34.97 14.66,-34.41 16.03,-33.79 17.38,-33.12 18.70,-32.39 19.99,-31.61 21.25,-30.78 22.47,-29.90 23.65,-28.97 24.80,-28.00 25.91,-26.97 26.97,-25.91 28.00,-24.80 28.97,-23.65 29.90,-22.47 30.78,-21.25 31.61,-19.99 32.39,-18.70 33.12,-17.38 33.79,-16.03 34.41,-14.66 34.97,-13.26 35.48,-11.84 35.92,-10.41 36.31,-8.95 36.65,-7.48 36.92,-6.00 37.13,-4.51 37.28,-3.01 37.37,-1.51 37.40,0.00"/>
  <edge id="right" type="edgeType" from="right" to="top" length="58.75" shape="37.40,0.00 37.37,1.51 37.28,3.01 37.13,4.51 36.92,6.00 36.65,7.48 36.31,8.95 35.92,10.41 35.48,11.84 34.97,13.26 34.41,14.66 33.79,16.03 33.12,17.38 32.39,18.70 31.61,19.99 30.78,21.25 29.90,22.47 28.97,23.65 28.00,24.80 26.97,25.91 25.91,26.97 24.80,28.00 23.65,28.97 22.47,29.90 21.25,30.78 19.99,31.61 18.70,32.39 17.38,33.12 16.03,33.79 14.66,34.41 13.26,34.97 11.84,35.48 10.41,35.92 8.95,36.31 7.48,36.65 6.00,36.92 4.51,37.13 3.01,37.28 1.51,37.37 0.00,37.40"/>
  <edge id="top" type="edgeType" from="top" to="left" length="58.75" shape="0.00,37.40 -1.51,37.37 -3.01,37.28 -4.51,37.13 -6.00,36.92 -7.48,36.65 -8.95,36.31 -10.41,35.92 -11.84,35.48 -13.26,34.97 -14.66,34.41 -16.03,33.79 -17.38,33.12 -18.70,32.39 -19.99,31.61 -21.25,30.78 -22.47,29.90 -23.65,28.97 -24.80,28.00 -25.91,26.97 -26.97,25.91 -28.00,24.80 -28.97,23.65 -29.90,22.47 -30.78,21.25 -31.61,19.99 -32.39,18.70 -33.12,17.38 -33.79,16.03 -34.41,14.66 -34.97,13.26 -35.48,11.84 -35.92,10.41 -36.31,8.95 -36.65,7.48 -36.92,6.00 -37.13,4.51 -37.28,3.01 -37.37,1.51 -37.40,0.00"/>
  <edge id="left" type="edgeType" from="left" to="bottom" length="58.75" shape="-37.40,0.00 -37.37,-1.51 -37.28,-3.01 -37.13,-4.51 -36.92,-6.00 -36.65,-7.48 -36.31,-8.95 -35.92,-10.41 -35.48,-11.84 -34.97,-13.26 -34.41,-14.66 -33.79,-16.03 -33.12,-17.38 -32.39,-18.70 -31.61,-19.99 -30.78,-21.25 -29.90,-22.47 -28.97,-23.65 -28.00,-24.80 -26.97,-25.91 -25.91,-26.97 -24.80,-28.00 -23.65,-28.97 -22.47,-29.90 -21.25,-30.78 -19.99,-31.61 -18.70,-32.39 -17.38,-33.12 -16.03,-33.79 -14.66,-34.41 -13.26,-34.97 -11.84,-35.48 -10.41,-35.92 -8.95,-36.31 -7.48,-36.65 -6.00,-36.92 -4.51,-37.13 -3.01,-37.28 -1.51,-37.37 -0.00,-37.40"/>
</edges>
