<?xml version='1.0' encoding='UTF-8'?>
<edges xmlns:xsi="http://www.w3.org/2001/XMLSchema-instance" xsi:noNamespaceSchemaLocation="http://sumo.dlr.de/xsd/edges_file.xsd">
  <edge id="bottom" type="edgeType" from="bottom" to="right" length="59.25" shape="0.00,-37.72 1.52,-37.69 3.04,-37.60 4.55,-37.44 6.05,-37.23 7.54,-36.96 9.03,-36.62 10.49,-36.23 11.94,-35.78 13.38,-35.27 14.78,-34.70 16.17,-34.08 17.53,-33.40 18.86,-32.67 20.16,-31.88 21.43,-31.04 22.66,-30.15 23.86,-29.22 25.01,-28.23 26.13,-27.20 27.20,-26.13 28.23,-25.01 29.22,-23.86 30.15,-22.66 31.04,-21.43 31.88,-20.16 32.67,-18.86 33.40,-17.53 34.08,-16.17 34.70,-14.78 35.27,-13.38 35.78,-11.94 36.23,-10.49 36.62,-9.03 36.96,-7.54 37.23,-6.05 37.44,-4.55 37.60,-3.04 37.69,-1.52 37.72,0.00"/>
  <edge id="right" type="edgeType" from="right" to="top" length="59.25" shape="37.72,0.00 37.69,1.52 37.60,3.04 37.44,4.55 37.23,6.05 36.96,7.54 36.62,9.03 36.23,10.49 35.78,11.94 35.27,13.38 34.70,14.78 34.08,16.17 33.40,17.53 32.67,18.86 31.88,20.16 31.04,21.43 30.15,22.66 29.22,23.86 28.23,25.01 27.20,26.13 26.13,27.20 25.01,28.23 23.86,29.22 22.66,30.15 21.43,31.04 20.16,31.88 18.86,32.67 17.53,33.40 16.17,34.08 14.78,34.70 13.38,35.27 11.94,35.78 10.49,36.23 9.03,36.62 7.54,36.96 6.05,37.23 4.55,37.44 3.04,37.60 1.52,37.69 0.00,37.72"/>
  <edge id="top" type="edgeType" from="top" to="left" length="59.25" shape="0.00,37.72 -1.52,37.69 -3.04,37.60 -4.55,37.44 -6.05,37.23 -7.54,36.96 -9.03,36.62 -10.49,36.23 -11.94,35.78 -13.38,35.27 -14.78,34.70 -16.17,34.08 -17.53,33.40 -18.86,32.67 -20.16,31.88 -21.43,31.04 -22.66,30.15 -23.86,29.22 -25.01,28.23 -26.13,27.20 -27.20,26.13 -28.23,25.01 -29.22,23.86 -30.15,22.66 -31.04,21.43 -31.88,20.16 -32.67,18.86 -33.40,17.53 -34.08,16.17 -34.70,14.78 -35.27,13.38 -35.78,11.94 -36.23,10.49 -36.62,9.03 -36.96,7.54 -37.23,6.05 -37.44,4.55 -37.60,3.04 -37.69,1.52 -37.72,0.00"/>
  <edge id="left" type="edgeType" from="left" to="bottom" length="59.25" shape="-37.72,0.00 -37.69,-1.52 -37.60,-3.04 -37.44,-4.55 -37.23,-6.05 -36.96,-7.54 -36.62,-9.03 -36.23,-10.49 -35.78,-11.94 -35.27,-13.38 -34.70,-14.78 -34.08,-16.17 -33.40,-17.53 -32.67,-18.86 -31.88,-20.16 -31.04,-21.43 -30.15,-22.66 -29.22,-23.86 -28.23,-25.01 -27.20,-26.13 -26.13,-27.20 -25.01,-28.23 -23.86,-29.22 -22.66,-30.15 -21.43,-31.04 -20.16,-31.88 -18.86,-32.67 -17.53,-33.40 -16.17,-34.08 -14.78,-34.70 -13.38,-35.27 -11.94,-35.78 -10.49,-36.23 -9.03,-36.62 -7.54,-36.96 -6.05,-37.23 -4.55,-37.44 -3.04,-37.60 -1.52,-37.69 -0.00,-37.72"/>
</edges>
