<?xml version='1.0' encoding='UTF-8'?>
<edges xmlns:xsi="http://www.w3.org/2001/XMLSchema-instance" xsi:noNamespaceSchemaLocation="http://sumo.dlr.de/xsd/edges_file.xsd">
  <edge id="bottom" type="edgeType" from="bottom" to="right" length="62.25" shape="0.00,-39.63 1.60,-39.60 3.19,-39.50 4.78,-39.34 6.36,-39.12 7.93,-38.83 9.48,-38.48 11.03,-38.06 12.55,-37.59 14.05,-37.05 15.53,-36.46 16.99,-35.80 18.42,-35.09 19.81,-34.32 21.18,-33.49 22.51,-32.61 23.81,-31.68 25.06,-30.70 26.28,-29.66 27.45,-28.58 28.58,-27.45 29.66,-26.28 30.70,-25.06 31.68,-23.81 32.61,-22.51 33.49,-21.18 34.32,-19.81 35.09,-18.42 35.80,-16.99 36.46,-15.53 37.05,-14.05 37.59,-12.55 38.06,-11.03 38.48,-9.48 38.83,-7.93 39.12,-6.36 39.34,-4.78 39.50,-3.19 39.60,-1.60 39.63,0.00"/>
  <edge id="right" type="edgeType" from="right" to="top" length="62.25" shape="39.63,0.00 39.60,1.60 39.50,3.19 39.34,4.78 39.12,6.36 38.83,7.93 38.48,9.48 38.06,11.03 37.59,12.55 37.05,14.05 36.46,15.53 35.80,16.99 35.09,18.42 34.32,19.81 33.49,21.18 32.61,22.51 31.68,23.81 30.70,25.06 29.66,26.28 28.58,27.45 27.45,28.58 26.28,29.66 25.06,30.70 23.81,31.68 22.51,32.61 21.18,33.49 19.81,34.32 18.42,35.09 16.99,35.80 15.53,36.46 14.05,37.05 12.55,37.59 11.03,38.06 9.48,38.48 7.93,38.83 6.36,39.12 4.78,39.34 3.19,39.50 1.60,39.60 0.00,39.63"/>
  <edge id="top" type="edgeType" from="top" to="left" length="62.25" shape="0.00,39.63 -1.60,39.60 -3.19,39.50 -4.78,39.34 -6.36,39.12 -7.93,38.83 -9.48,38.48 -11.03,38.06 -12.55,37.59 -14.05,37.05 -15.53,36.46 -16.99,35.80 -18.42,35.09 -19.81,34.32 -21.18,33.49 -22.51,32.61 -23.81,31.68 -25.06,30.70 -26.28,29.66 -27.45,28.58 -28.58,27.45 -29.66,26.28 -30.70,25.06 -31.68,23.81 -32.61,22.51 -33.49,21.18 -34.32,19.81 -35.09,18.42 -35.80,16.99 -36.46,15.53 -37.05,14.05 -37.59,12.55 -38.06,11.03 -38.48,9.48 -38.83,7.93 -39.12,6.36 -39.34,4.78 -39.50,3.19 -39.60,1.60 -39.63,0.00"/>
  <edge id="left" type="edgeType" from="left" to="bottom" length="62.25" shape="-39.63,0.00 -39.60,-1.60 -39.50,-3.19 -39.34,-4.78 -39.12,-6.36 -38.83,-7.93 -38.48,-9.48 -38.06,-11.03 -37.59,-12.55 -37.05,-14.05 -36.46,-15.53 -35.80,-16.99 -35.09,-18.42 -34.32,-19.81 -33.49,-21.18 -32.61,-22.51 -31.68,-23.81 -30.70,-25.06 -29.66,-26.28 -28.58,-27.45 -27.45,-28.58 -26.28,-29.66 -25.06,-30.70 -23.81,-31.68 -22.51,-32.61 -21.18,-33.49 -19.81,-34.32 -18.42,-35.09 -16.99,-35.80 -15.53,-36.46 -14.05,-37.05 -12.55,-37.59 -11.03,-38.06 -9.48,-38.48 -7.93,-38.83 -6.36,-39.12 -4.78,-39.34 -3.19,-39.50 -1.60,-39.60 -0.00,-39.63"/>
</edges>
