<?xml version='1.0' encoding='UTF-8'?>
<edges xmlns:xsi="http://www.w3.org/2001/XMLSchema-instance" xsi:noNamespaceSchemaLocation="http://sumo.dlr.de/xsd/edges_file.xsd">
  <edge id="bottom" type="edgeType" from="bottom" to="right" length="65.25" shape="0.00,-41.54 1.67,-41.51 3.34,-41.40 5.01,-41.24 6.66,-41.00 8.31,-40.70 9.94,-40.33 11.56,-39.90 13.15,-39.40 14.73,-38.84 16.28,-38.22 17.81,-37.53 19.30,-36.78 20.77,-35.97 22.20,-35.11 23.60,-34.19 24.95,-33.21 26.27,-32.18 27.55,-31.09 28.78,-29.96 29.96,-28.78 31.09,-27.55 32.18,-26.27 33.21,-24.95 34.19,-23.60 35.11,-22.20 35.97,-20.77 36.78,-19.30 37.53,-17.81 38.22,-16.28 38.84,-14.73 39.40,-13.15 39.90,-11.56 40.33,-9.94 40.70,-8.31 41.00,-6.66 41.24,-5.01 41.40,-3.34 41.51,-1.67 41.54,0.00"/>
  <edge id="right" type="edgeType" from="right" to="top" length="65.25" shape="41.54,0.00 41.51,1.67 41.40,3.34 41.24,5.01 41.00,6.66 40.70,8.31 40.33,9.94 39.90,11.56 39.40,13.15 38.84,14.73 38.22,16.28 37.53,17.81 36.78,19.30 35.97,20.77 35.11,22.20 34.19,23.60 33.21,24.95 32.18,26.27 31.09,27.55 29.96,28.78 28.78,29.96 27.55,31.09 26.27,32.18 24.95,33.21 23.60,34.19 22.20,35.11 20.77,35.97 19.30,36.78 17.81,37.53 16.28,38.22 14.73,38.84 13.15,39.40 11.56,39.90 9.94,40.33 8.31,40.70 6.66,41.00 5.01,41.24 3.34,41.40 1.67,41.51 0.00,41.54"/>
  <edge id="top" type="edgeType" from="top" to="left" length="65.25" shape="0.00,41.54 -1.67,41.51 -3.34,41.40 -5.01,41.24 -6.66,41.00 -8.31,40.70 -9.94,40.33 -11.56,39.90 -13.15,39.40 -14.73,38.84 -16.28,38.22 -17.81,37.53 -19.30,36.78 -20.77,35.97 -22.20,35.11 -23.60,34.19 -24.95,33.21 -26.27,32.18 -27.55,31.09 -28.78,29.96 -29.96,28.78 -31.09,27.55 -32.18,26.27 -33.21,24.95 -34.19,23.60 -35.11,22.20 -35.97,20.77 -36.78,19.30 -37.53,17.81 -38.22,16.28 -38.84,14.73 -39.40,13.15 -39.90,11.56 -40.33,9.94 -40.70,8.31 -41.00,6.66 -41.24,5.01 -41.40,3.34 -41.51,1.67 -41.54,0.00"/>
  <edge id="left" type="edgeType" from="left" to="bottom" length="65.25" shape="-41.54,0.00 -41.51,-1.67 -41.40,-3.34 -41.24,-5.01 -41.00,-6.66 -40.70,-8.31 -40.33,-9.94 -39.90,-11.56 -39.40,-13.15 -38.84,-14.73 -38.22,-16.28 -37.53,-17.81 -36.78,-19.30 -35.97,-20.77 -35.11,-22.20 -34.19,-23.60 -33.21,-24.95 -32.18,-26.27 -31.09,-27.55 -29.96,-28.78 -28.78,-29.96 -27.55,-31.09 -26.27,-32.18 -24.95,-33.21 -23.60,-34.19 -22.20,-35.11 -20.77,-35.97 -19.30,-36.78 -17.81,-37.53 -16.28,-38.22 -14.73,-38.84 -13.15,-39.40 -11.56,-39.90 -9.94,-40.33 -8.31,-40.70 -6.66,-41.00 -5.01,-41.24 -3.34,-41.40 -1.67,-41.51 -0.00,-41.54"/>
</edges>
