<?xml version='1.0' encoding='UTF-8'?>
<edges xmlns:xsi="http://www.w3.org/2001/XMLSchema-instance" xsi:noNamespaceSchemaLocation="http://sumo.dlr.de/xsd/edges_file.xsd">
  <edge id="bottom" type="edgeType" from="bottom" to="right" length="61.5" shape="0.00,-39.15 1.58,-39.12 3.15,-39.03 4.72,-38.87 6.28,-38.65 7.83,-38.36 9.37,-38.01 10.89,-37.61 12.40,-37.14 13.88,-36.61 15.35,-36.02 16.78,-35.37 18.19,-34.67 19.58,-33.91 20.93,-33.09 22.24,-32.22 23.52,-31.30 24.76,-30.33 25.96,-29.31 27.12,-28.24 28.24,-27.12 29.31,-25.96 30.33,-24.76 31.30,-23.52 32.22,-22.24 33.09,-20.93 33.91,-19.58 34.67,-18.19 35.37,-16.78 36.02,-15.35 36.61,-13.88 37.14,-12.40 37.61,-10.89 38.01,-9.37 38.36,-7.83 38.65,-6.28 38.87,-4.72 39.03,-3.15 39.12,-1.58 39.15,0.00"/>
  <edge id="right" type="edgeType" from="right" to="top" length="61.5" shape="39.15,0.00 39.12,1.58 39.03,3.15 38.87,4.72 38.65,6.28 38.36,7.83 38.01,9.37 37.61,10.89 37.14,12.40 36.61,13.88 36.02,15.35 35.37,16.78 34.67,18.19 33.91,19.58 33.09,20.93 32.22,22.24 31.30,23.52 30.33,24.76 29.31,25.96 28.24,27.12 27.12,28.24 25.96,29.31 24.76,30.33 23.52,31.30 22.24,32.22 20.93,33.09 19.58,33.91 18.19,34.67 16.78,35.37 15.35,36.02 13.88,36.61 12.40,37.14 10.89,37.61 9.37,38.01 7.83,38.36 6.28,38.65 4.72,38.87 3.15,39.03 1.58,39.12 0.00,39.15"/>
  <edge id="top" type="edgeType" from="top" to="left" length="61.5" shape="0.00,39.15 -1.58,39.12 -3.15,39.03 -4.72,38.87 -6.28,38.65 -7.83,38.36 -9.37,38.01 -10.89,37.61 -12.40,37.14 -13.88,36.61 -15.35,36.02 -16.78,35.37 -18.19,34.67 -19.58,33.91 -20.93,33.09 -22.24,32.22 -23.52,31.30 -24.76,30.33 -25.96,29.31 -27.12,28.24 -28.24,27.12 -29.31,25.96 -30.33,24.76 -31.30,23.52 -32.22,22.24 -33.09,20.93 -33.91,19.58 -34.67,18.19 -35.37,16.78 -36.02,15.35 -36.61,13.88 -37.14,12.40 -37.61,10.89 -38.01,9.37 -38.36,7.83 -38.65,6.28 -38.87,4.72 -39.03,3.15 -39.12,1.58 -39.15,0.00"/>
  <edge id="left" type="edgeType" from="left" to="bottom" length="61.5" shape="-39.15,0.00 -39.12,-1.58 -39.03,-3.15 -38.87,-4.72 -38.65,-6.28 -38.36,-7.83 -38.01,-9.37 -37.61,-10.89 -37.14,-12.40 -36.61,-13.88 -36.02,-15.35 -35.37,-16.78 -34.67,-18.19 -33.91,-19.58 -33.09,-20.93 -32.22,-22.24 -31.30,-23.52 -30.33,-24.76 -29.31,-25.96 -28.24,-27.12 -27.12,-28.24 -25.96,-29.31 -24.76,-30.33 -23.52,-31.30 -22.24,-32.22 -20.93,-33.09 -19.58,-33.91 -18.19,-34.67 -16.78,-35.37 -15.35,-36.02 -13.88,-36.61 -12.40,-37.14 -10.89,-37.61 -9.37,-38.01 -7.83,-38.36 -6.28,-38.65 -4.72,-38.87 -3.15,-39.03 -1.58,-39.12 -0.00,-39.15"/>
</edges>
