<?xml version='1.0' encoding='UTF-8'?>
<edges xmlns:xsi="http://www.w3.org/2001/XMLSchema-instance" xsi:noNamespaceSchemaLocation="http://sumo.dlr.de/xsd/edges_file.xsd">
  <edge id="bottom" type="edgeType" from="bottom" to="right" length="59.75" shape="0.00,-38.04 1.53,-38.01 3.06,-37.91 4.58,-37.76 6.10,-37.55 7.61,-37.27 9.10,-36.93 10.58,-36.54 12.05,-36.08 13.49,-35.57 14.91,-34.99 16.31,-34.37 17.68,-33.68 19.02,-32.94 20.33,-32.15 21.61,-31.30 22.85,-30.41 24.06,-29.46 25.22,-28.47 26.35,-27.43 27.43,-26.35 28.47,-25.22 29.46,-24.06 30.41,-22.85 31.30,-21.61 32.15,-20.33 32.94,-19.02 33.68,-17.68 34.37,-16.31 34.99,-14.91 35.57,-13.49 36.08,-12.05 36.54,-10.58 36.93,-9.10 37.27,-7.61 37.55,-6.10 37.76,-4.58 37.91,-3.06 38.01,-1.53 38.04,0.00"/>
  <edge id="right" type="edgeType" from="right" to="top" length="59.75" shape="38.04,0.00 38.01,1.53 37.91,3.06 37.76,4.58 37.55,6.10 37.27,7.61 36.93,9.10 36.54,10.58 36.08,12.05 35.57,13.49 34.99,14.91 34.37,16.31 33.68,17.68 32.94,19.02 32.15,20.33 31.30,21.61 30.41,22.85 29.46,24.06 28.47,25.22 27.43,26.35 26.35,27.43 25.22,28.47 24.06,29.46 22.85,30.41 21.61,31.30 20.33,32.15 19.02,32.94 17.68,33.68 16.31,34.37 14.91,34.99 13.49,35.57 12.05,36.08 10.58,36.54 9.10,36.93 7.61,37.27 6.10,37.55 4.58,37.76 3.06,37.91 1.53,38.01 0.00,38.04"/>
  <edge id="top" type="edgeType" from="top" to="left" length="59.75" shape="0.00,38.04 -1.53,38.01 -3.06,37.91 -4.58,37.76 -6.10,37.55 -7.61,37.27 -9.10,36.93 -10.58,36.54 -12.05,36.08 -13.49,35.57 -14.91,34.99 -16.31,34.37 -17.68,33.68 -19.02,32.94 -20.33,32.15 -21.61,31.30 -22.85,30.41 -24.06,29.46 -25.22,28.47 -26.35,27.43 -27.43,26.35 -28.47,25.22 -29.46,24.06 -30.41,22.85 -31.30,21.61 -32.15,20.33 -32.94,19.02 -33.68,17.68 -34.37,16.31 -34.99,14.91 -35.57,13.49 -36.08,12.05 -36.54,10.58 -36.93,9.10 -37.27,7.61 -37.55,6.10 -37.76,4.58 -37.91,3.06 -38.01,1.53 -38.04,0.00"/>
  <edge id="left" type="edgeType" from="left" to="bottom" length="59.75" shape="-38.04,0.00 -38.01,-1.53 -37.91,-3.06 -37.76,-4.58 -37.55,-6.10 -37.27,-7.61 -36.93,-9.10 -36.54,-10.58 -36.08,-12.05 -35.57,-13.49 -34.99,-14.91 -34.37,-16.31 -33.68,-17.68 -32.94,-19.02 -32.15,-20.33 -31.30,-21.61 -30.41,-22.85 -29.46,-24.06 -28.47,-25.22 -27.43,-26.35 -26.35,-27.43 -25.22,-28.47 -24.06,-29.46 -22.85,-30.41 -21.61,-31.30 -20.33,-32.15 -19.02,-32.94 -17.68,-33.68 -16.31,-34.37 -14.91,-34.99 -13.49,-35.57 -12.05,-36.08 -10.58,-36.54 -9.10,-36.93 -7.61,-37.27 -6.10,-37.55 -4.58,-37.76 -3.06,-37.91 -1.53,-38.01 -0.00,-38.04"/>
</edges>
