<?xml version='1.0' encoding='UTF-8'?>
<nodes xmlns:xsi="http://www.w3.org/2001/XMLSchema-instance" xsi:noNamespaceSchemaLocation="http://sumo.dlr.de/xsd/nodes_file.xsd">
  <node id="bottom" x="0" y="-37.719721512779195"/>
  <node id="right" x="37.719721512779195" y="0"/>
  <node id="top" x="0" y="37.719721512779195"/>
  <node id="left" x="-37.719721512779195" y="0"/>
</nodes>
