<?xml version='1.0' encoding='UTF-8'?>
<edges xmlns:xsi="http://www.w3.org/2001/XMLSchema-instance" xsi:noNamespaceSchemaLocation="http://sumo.dlr.de/xsd/edges_file.xsd">
  <edge id="bottom" type="edgeType" from="bottom" to="right" length="64.5" shape="0.00,-41.06 1.65,-41.03 3.30,-40.93 4.95,-40.76 6.59,-40.53 8.21,-40.23 9.83,-39.87 11.42,-39.44 13.00,-38.95 14.56,-38.39 16.09,-37.78 17.60,-37.10 19.08,-36.36 20.53,-35.56 21.95,-34.71 23.33,-33.79 24.67,-32.83 25.97,-31.81 27.23,-30.74 28.44,-29.61 29.61,-28.44 30.74,-27.23 31.81,-25.97 32.83,-24.67 33.79,-23.33 34.71,-21.95 35.56,-20.53 36.36,-19.08 37.10,-17.60 37.78,-16.09 38.39,-14.56 38.95,-13.00 39.44,-11.42 39.87,-9.83 40.23,-8.21 40.53,-6.59 40.76,-4.95 40.93,-3.30 41.03,-1.65 41.06,0.00"/>
  <edge id="right" type="edgeType" from="right" to="top" length="64.5" shape="41.06,0.00 41.03,1.65 40.93,3.30 40.76,4.95 40.53,6.59 40.23,8.21 39.87,9.83 39.44,11.42 38.95,13.00 38.39,14.56 37.78,16.09 37.10,17.60 36.36,19.08 35.56,20.53 34.71,21.95 33.79,23.33 32.83,24.67 31.81,25.97 30.74,27.23 29.61,28.44 28.44,29.61 27.23,30.74 25.97,31.81 24.67,32.83 23.33,33.79 21.95,34.71 20.53,35.56 19.08,36.36 17.60,37.10 16.09,37.78 14.56,38.39 13.00,38.95 11.42,39.44 9.83,39.87 8.21,40.23 6.59,40.53 4.95,40.76 3.30,40.93 1.65,41.03 0.00,41.06"/>
  <edge id="top" type="edgeType" from="top" to="left" length="64.5" shape="0.00,41.06 -1.65,41.03 -3.30,40.93 -4.95,40.76 -6.59,40.53 -8.21,40.23 -9.83,39.87 -11.42,39.44 -13.00,38.95 -14.56,38.39 -16.09,37.78 -17.60,37.10 -19.08,36.36 -20.53,35.56 -21.95,34.71 -23.33,33.79 -24.67,32.83 -25.97,31.81 -27.23,30.74 -28.44,29.61 -29.61,28.44 -30.74,27.23 -31.81,25.97 -32.83,24.67 -33.79,23.33 -34.71,21.95 -35.56,20.53 -36.36,19.08 -37.10,17.60 -37.78,16.09 -38.39,14.56 -38.95,13.00 -39.44,11.42 -39.87,9.83 -40.23,8.21 -40.53,6.59 -40.76,4.95 -40.93,3.30 -41.03,1.65 -41.06,0.00"/>
  <edge id="left" type="edgeType" from="left" to="bottom" length="64.5" shape="-41.06,0.00 -41.03,-1.65 -40.93,-3.30 -40.76,-4.95 -40.53,-6.59 -40.23,-8.21 -39.87,-9.83 -39.44,-11.42 -38.95,-13.00 -38.39,-14.56 -37.78,-16.09 -37.10,-17.60 -36.36,-19.08 -35.56,-20.53 -34.71,-21.95 -33.79,-23.33 -32.83,-24.67 -31.81,-25.97 -30.74,-27.23 -29.61,-28.44 -28.44,-29.61 -27.23,-30.74 -25.97,-31.81 -24.67,-32.83 -23.33,-33.79 -21.95,-34.71 -20.53,-35.56 -19.08,-36.36 -17.60,-37.10 -16.09,-37.78 -14.56,-38.39 -13.00,-38.95 -11.42,-39.44 -9.83,-39.87 -8.21,-40.23 -6.59,-40.53 -4.95,-40.76 -3.30,-40.93 -1.65,-41.03 -0.00,-41.06"/>
</edges>
