<?xml version='1.0' encoding='UTF-8'?>
<edges xmlns:xsi="http://www.w3.org/2001/XMLSchema-instance" xsi:noNamespaceSchemaLocation="http://sumo.dlr.de/xsd/edges_file.xsd">
  <edge id="bottom" type="edgeType" from="bottom" to="right" length="57.0" shape="0.00,-36.29 1.46,-36.26 2.92,-36.17 4.37,-36.02 5.82,-35.82 7.26,-35.55 8.68,-35.23 10.10,-34.85 11.49,-34.42 12.87,-33.93 14.22,-33.38 15.56,-32.78 16.86,-32.13 18.14,-31.43 19.39,-30.67 20.61,-29.86 21.80,-29.01 22.95,-28.11 24.06,-27.16 25.14,-26.17 26.17,-25.14 27.16,-24.06 28.11,-22.95 29.01,-21.80 29.86,-20.61 30.67,-19.39 31.43,-18.14 32.13,-16.86 32.78,-15.56 33.38,-14.22 33.93,-12.87 34.42,-11.49 34.85,-10.10 35.23,-8.68 35.55,-7.26 35.82,-5.82 36.02,-4.37 36.17,-2.92 36.26,-1.46 36.29,0.00"/>
  <edge id="right" type="edgeType" from="right" to="top" length="57.0" shape="36.29,0.00 36.26,1.46 36.17,2.92 36.02,4.37 35.82,5.82 35.55,7.26 35.23,8.68 34.85,10.10 34.42,11.49 33.93,12.87 33.38,14.22 32.78,15.56 32.13,16.86 31.43,18.14 30.67,19.39 29.86,20.61 29.01,21.80 28.11,22.95 27.16,24.06 26.17,25.14 25.14,26.17 24.06,27.16 22.95,28.11 21.80,29.01 20.61,29.86 19.39,30.67 18.14,31.43 16.86,32.13 15.56,32.78 14.22,33.38 12.87,33.93 11.49,34.42 10.10,34.85 8.68,35.23 7.26,35.55 5.82,35.82 4.37,36.02 2.92,36.17 1.46,36.26 0.00,36.29"/>
  <edge id="top" type="edgeType" from="top" to="left" length="57.0" shape="0.00,36.29 -1.46,36.26 -2.92,36.17 -4.37,36.02 -5.82,35.82 -7.26,35.55 -8.68,35.23 -10.10,34.85 -11.49,34.42 -12.87,33.93 -14.22,33.38 -15.56,32.78 -16.86,32.13 -18.14,31.43 -19.39,30.67 -20.61,29.86 -21.80,29.01 -22.95,28.11 -24.06,27.16 -25.14,26.17 -26.17,25.14 -27.16,24.06 -28.11,22.95 -29.01,21.80 -29.86,20.61 -30.67,19.39 -31.43,18.14 -32.13,16.86 -32.78,15.56 -33.38,14.22 -33.93,12.87 -34.42,11.49 -34.85,10.10 -35.23,8.68 -35.55,7.26 -35.82,5.82 -36.02,4.37 -36.17,2.92 -36.26,1.46 -36.29,0.00"/>
  <edge id="left" type="edgeType" from="left" to="bottom" length="57.0" shape="-36.29,0.00 -36.26,-1.46 -36.17,-2.92 -36.02,-4.37 -35.82,-5.82 -35.55,-7.26 -35.23,-8.68 -34.85,-10.10 -34.42,-11.49 -33.93,-12.87 -33.38,-14.22 -32.78,-15.56 -32.13,-16.86 -31.43,-18.14 -30.67,-19.39 -29.86,-20.61 -29.01,-21.80 -28.11,-22.95 -27.16,-24.06 -26.17,-25.14 -25.14,-26.17 -24.06,-27.16 -22.95,-28.11 -21.80,-29.01 -20.61,-29.86 -19.39,-30.67 -18.14,-31.43 -16.86,-32.13 -15.56,-32.78 -14.22,-33.38 -12.87,-33.93 -11.49,-34.42 -10.10,-34.85 -8.68,-35.23 -7.26,-35.55 -5.82,-35.82 -4.37,-36.02 -2.92,-36.17 -1.46,-36.26 -0.00,-36.29"/>
</edges>
