<?xml version='1.0' encoding='UTF-8'?>
<edges xmlns:xsi="http://www.w3.org/2001/XMLSchema-instance" xsi:noNamespaceSchemaLocation="http://sumo.dlr.de/xsd/edges_file.xsd">
  <edge id="bottom" type="edgeType" from="bottom" to="right" length="55.0" shape="0.00,-35.01 1.41,-34.99 2.82,-34.90 4.22,-34.76 5.62,-34.56 7.00,-34.31 8.38,-34.00 9.74,-33.63 11.09,-33.21 12.42,-32.74 13.72,-32.21 15.01,-31.63 16.27,-31.00 17.51,-30.32 18.71,-29.59 19.89,-28.82 21.03,-27.99 22.14,-27.12 23.22,-26.21 24.26,-25.25 25.25,-24.26 26.21,-23.22 27.12,-22.14 27.99,-21.03 28.82,-19.89 29.59,-18.71 30.32,-17.51 31.00,-16.27 31.63,-15.01 32.21,-13.72 32.74,-12.42 33.21,-11.09 33.63,-9.74 34.00,-8.38 34.31,-7.00 34.56,-5.62 34.76,-4.22 34.90,-2.82 34.99,-1.41 35.01,0.00"/>
  <edge id="right" type="edgeType" from="right" to="top" length="55.0" shape="35.01,0.00 34.99,1.41 34.90,2.82 34.76,4.22 34.56,5.62 34.31,7.00 34.00,8.38 33.63,9.74 33.21,11.09 32.74,12.42 32.21,13.72 31.63,15.01 31.00,16.27 30.32,17.51 29.59,18.71 28.82,19.89 27.99,21.03 27.12,22.14 26.21,23.22 25.25,24.26 24.26,25.25 23.22,26.21 22.14,27.12 21.03,27.99 19.89,28.82 18.71,29.59 17.51,30.32 16.27,31.00 15.01,31.63 13.72,32.21 12.42,32.74 11.09,33.21 9.74,33.63 8.38,34.00 7.00,34.31 5.62,34.56 4.22,34.76 2.82,34.90 1.41,34.99 0.00,35.01"/>
  <edge id="top" type="edgeType" from="top" to="left" length="55.0" shape="0.00,35.01 -1.41,34.99 -2.82,34.90 -4.22,34.76 -5.62,34.56 -7.00,34.31 -8.38,34.00 -9.74,33.63 -11.09,33.21 -12.42,32.74 -13.72,32.21 -15.01,31.63 -16.27,31.00 -17.51,30.32 -18.71,29.59 -19.89,28.82 -21.03,27.99 -22.14,27.12 -23.22,26.21 -24.26,25.25 -25.25,24.26 -26.21,23.22 -27.12,22.14 -27.99,21.03 -28.82,19.89 -29.59,18.71 -30.32,17.51 -31.00,16.27 -31.63,15.01 -32.21,13.72 -32.74,12.42 -33.21,11.09 -33.63,9.74 -34.00,8.38 -34.31,7.00 -34.56,5.62 -34.76,4.22 -34.90,2.82 -34.99,1.41 -35.01,0.00"/>
  <edge id="left" type="edgeType" from="left" to="bottom" length="55.0" shape="-35.01,0.00 -34.99,-1.41 -34.90,-2.82 -34.76,-4.22 -34.56,-5.62 -34.31,-7.00 -34.00,-8.38 -33.63,-9.74 -33.21,-11.09 -32.74,-12.42 -32.21,-13.72 -31.63,-15.01 -31.00,-16.27 -30.32,-17.51 -29.59,-18.71 -28.82,-19.89 -27.99,-21.03 -27.12,-22.14 -26.21,-23.22 -25.25,-24.26 -24.26,-25.25 -23.22,-26.21 -22.14,-27.12 -21.03,-27.99 -19.89,-28.82 -18.71,-29.59 -17.51,-30.32 -16.27,-31.00 -15.01,-31.63 -13.72,-32.21 -12.42,-32.74 -11.09,-33.21 -9.74,-33.63 -8.38,-34.00 -7.00,-34.31 -5.62,-34.56 -4.22,-34.76 -2.82,-34.90 -1.41,-34.99 -0.00,-35.01"/>
</edges>
