<?xml version='1.0' encoding='UTF-8'?>
<edges xmlns:xsi="http://www.w3.org/2001/XMLSchema-instance" xsi:noNamespaceSchemaLocation="http://sumo.dlr.de/xsd/edges_file.xsd">
  <edge id="bottom" type="edgeType" from="bottom" to="right" length="65.5" shape="0.00,-41.70 1.68,-41.66 3.36,-41.56 5.03,-41.39 6.69,-41.16 8.34,-40.86 9.98,-40.49 11.60,-40.05 13.20,-39.55 14.79,-38.99 16.34,-38.36 17.88,-37.67 19.38,-36.92 20.85,-36.11 22.29,-35.24 23.69,-34.32 25.05,-33.34 26.37,-32.30 27.65,-31.21 28.89,-30.07 30.07,-28.89 31.21,-27.65 32.30,-26.37 33.34,-25.05 34.32,-23.69 35.24,-22.29 36.11,-20.85 36.92,-19.38 37.67,-17.88 38.36,-16.34 38.99,-14.79 39.55,-13.20 40.05,-11.60 40.49,-9.98 40.86,-8.34 41.16,-6.69 41.39,-5.03 41.56,-3.36 41.66,-1.68 41.70,0.00"/>
  <edge id="right" type="edgeType" from="right" to="top" length="65.5" shape="41.70,0.00 41.66,1.68 41.56,3.36 41.39,5.03 41.16,6.69 40.86,8.34 40.49,9.98 40.05,11.60 39.55,13.20 38.99,14.79 38.36,16.34 37.67,17.88 36.92,19.38 36.11,20.85 35.24,22.29 34.32,23.69 33.34,25.05 32.30,26.37 31.21,27.65 30.07,28.89 28.89,30.07 27.65,31.21 26.37,32.30 25.05,33.34 23.69,34.32 22.29,35.24 20.85,36.11 19.38,36.92 17.88,37.67 16.34,38.36 14.79,38.99 13.20,39.55 11.60,40.05 9.98,40.49 8.34,40.86 6.69,41.16 5.03,41.39 3.36,41.56 1.68,41.66 0.00,41.70"/>
  <edge id="top" type="edgeType" from="top" to="left" length="65.5" shape="0.00,41.70 -1.68,41.66 -3.36,41.56 -5.03,41.39 -6.69,41.16 -8.34,40.86 -9.98,40.49 -11.60,40.05 -13.20,39.55 -14.79,38.99 -16.34,38.36 -17.88,37.67 -19.38,36.92 -20.85,36.11 -22.29,35.24 -23.69,34.32 -25.05,33.34 -26.37,32.30 -27.65,31.21 -28.89,30.07 -30.07,28.89 -31.21,27.65 -32.30,26.37 -33.34,25.05 -34.32,23.69 -35.24,22.29 -36.11,20.85 -36.92,19.38 -37.67,17.88 -38.36,16.34 -38.99,14.79 -39.55,13.20 -40.05,11.60 -40.49,9.98 -40.86,8.34 -41.16,6.69 -41.39,5.03 -41.56,3.36 -41.66,1.68 -41.70,0.00"/>
  <edge id="left" type="edgeType" from="left" to="bottom" length="65.5" shape="-41.70,0.00 -41.66,-1.68 -41.56,-3.36 -41.39,-5.03 -41.16,-6.69 -40.86,-8.34 -40.49,-9.98 -40.05,-11.60 -39.55,-13.20 -38.99,-14.79 -38.36,-16.34 -37.67,-17.88 -36.92,-19.38 -36.11,-20.85 -35.24,-22.29 -34.32,-23.69 -33.34,-25.05 -32.30,-26.37 -31.21,-27.65 -30.07,-28.89 -28.89,-30.07 -27.65,-31.21 -26.37,-32.30 -25.05,-33.34 -23.69,-34.32 -22.29,-35.24 -20.85,-36.11 -19.38,-36.92 -17.88,-37.67 -16.34,-38.36 -14.79,-38.99 -13.20,-39.55 -11.60,-40.05 -9.98,-40.49 -8.34,-40.86 -6.69,-41.16 -5.03,-41.39 -3.36,-41.56 -1.68,-41.66 -0.00,-41.70"/>
</edges>
