<?xml version='1.0' encoding='UTF-8'?>
<edges xmlns:xsi="http://www.w3.org/2001/XMLSchema-instance" xsi:noNamespaceSchemaLocation="http://sumo.dlr.de/xsd/edges_file.xsd">
  <edge id="bottom" type="edgeType" from="bottom" to="right" length="57.75" shape="0.00,-36.76 1.48,-36.73 2.96,-36.65 4.43,-36.50 5.90,-36.29 7.35,-36.02 8.80,-35.70 10.23,-35.31 11.64,-34.87 13.04,-34.38 14.41,-33.82 15.76,-33.22 17.09,-32.55 18.38,-31.84 19.65,-31.07 20.88,-30.26 22.09,-29.39 23.25,-28.48 24.38,-27.52 25.47,-26.51 26.51,-25.47 27.52,-24.38 28.48,-23.25 29.39,-22.09 30.26,-20.88 31.07,-19.65 31.84,-18.38 32.55,-17.09 33.22,-15.76 33.82,-14.41 34.38,-13.04 34.87,-11.64 35.31,-10.23 35.70,-8.80 36.02,-7.35 36.29,-5.90 36.50,-4.43 36.65,-2.96 36.73,-1.48 36.76,0.00"/>
  <edge id="right" type="edgeType" from="right" to="top" length="57.75" shape="36.76,0.00 36.73,1.48 36.65,2.96 36.50,4.43 36.29,5.90 36.02,7.35 35.70,8.80 35.31,10.23 34.87,11.64 34.38,13.04 33.82,14.41 33.22,15.76 32.55,17.09 31.84,18.38 31.07,19.65 30.26,20.88 29.39,22.09 28.48,23.25 27.52,24.38 26.51,25.47 25.47,26.51 24.38,27.52 23.25,28.48 22.09,29.39 20.88,30.26 19.65,31.07 18.38,31.84 17.09,32.55 15.76,33.22 14.41,33.82 13.04,34.38 11.64,34.87 10.23,35.31 8.80,35.70 7.35,36.02 5.90,36.29 4.43,36.50 2.96,36.65 1.48,36.73 0.00,36.76"/>
  <edge id="top" type="edgeType" from="top" to="left" length="57.75" shape="0.00,36.76 -1.48,36.73 -2.96,36.65 -4.43,36.50 -5.90,36.29 -7.35,36.02 -8.80,35.70 -10.23,35.31 -11.64,34.87 -13.04,34.38 -14.41,33.82 -15.76,33.22 -17.09,32.55 -18.38,31.84 -19.65,31.07 -20.88,30.26 -22.09,29.39 -23.25,28.48 -24.38,27.52 -25.47,26.51 -26.51,25.47 -27.52,24.38 -28.48,23.25 -29.39,22.09 -30.26,20.88 -31.07,19.65 -31.84,18.38 -32.55,17.09 -33.22,15.76 -33.82,14.41 -34.38,13.04 -34.87,11.64 -35.31,10.23 -35.70,8.80 -36.02,7.35 -36.29,5.90 -36.50,4.43 -36.65,2.96 -36.73,1.48 -36.76,0.00"/>
  <edge id="left" type="edgeType" from="left" to="bottom" length="57.75" shape="-36.76,0.00 -36.73,-1.48 -36.65,-2.96 -36.50,-4.43 -36.29,-5.90 -36.02,-7.35 -35.70,-8.80 -35.31,-10.23 -34.87,-11.64 -34.38,-13.04 -33.82,-14.41 -33.22,-15.76 -32.55,-17.09 -31.84,-18.38 -31.07,-19.65 -30.26,-20.88 -29.39,-22.09 -28.48,-23.25 -27.52,-24.38 -26.51,-25.47 -25.47,-26.51 -24.38,-27.52 -23.25,-28.48 -22.09,-29.39 -20.88,-30.26 -19.65,-31.07 -18.38,-31.84 -17.09,-32.55 -15.76,-33.22 -14.41,-33.82 -13.04,-34.38 -11.64,-34.87 -10.23,-35.31 -8.80,-35.70 -7.35,-36.02 -5.90,-36.29 -4.43,-36.50 -2.96,-36.65 -1.48,-36.73 -0.00,-36.76"/>
</edges>
