<?xml version='1.0' encoding='UTF-8'?>
<edges xmlns:xsi="http://www.w3.org/2001/XMLSchema-instance" xsi:noNamespaceSchemaLocation="http://sumo.dlr.de/xsd/edges_file.xsd">
  <edge id="bottom" type="edgeType" from="bottom" to="right" length="67.0" shape="0.00,-42.65 1.72,-42.62 3.43,-42.52 5.14,-42.34 6.84,-42.10 8.53,-41.79 10.21,-41.41 11.87,-40.97 13.51,-40.46 15.13,-39.88 16.72,-39.24 18.29,-38.54 19.82,-37.77 21.33,-36.94 22.80,-36.05 24.23,-35.10 25.62,-34.10 26.98,-33.04 28.28,-31.93 29.55,-30.76 30.76,-29.55 31.93,-28.28 33.04,-26.98 34.10,-25.62 35.10,-24.23 36.05,-22.80 36.94,-21.33 37.77,-19.82 38.54,-18.29 39.24,-16.72 39.88,-15.13 40.46,-13.51 40.97,-11.87 41.41,-10.21 41.79,-8.53 42.10,-6.84 42.34,-5.14 42.52,-3.43 42.62,-1.72 42.65,0.00"/>
  <edge id="right" type="edgeType" from="right" to="top" length="67.0" shape="42.65,0.00 42.62,1.72 42.52,3.43 42.34,5.14 42.10,6.84 41.79,8.53 41.41,10.21 40.97,11.87 40.46,13.51 39.88,15.13 39.24,16.72 38.54,18.29 37.77,19.82 36.94,21.33 36.05,22.80 35.10,24.23 34.10,25.62 33.04,26.98 31.93,28.28 30.76,29.55 29.55,30.76 28.28,31.93 26.98,33.04 25.62,34.10 24.23,35.10 22.80,36.05 21.33,36.94 19.82,37.77 18.29,38.54 16.72,39.24 15.13,39.88 13.51,40.46 11.87,40.97 10.21,41.41 8.53,41.79 6.84,42.10 5.14,42.34 3.43,42.52 1.72,42.62 0.00,42.65"/>
  <edge id="top" type="edgeType" from="top" to="left" length="67.0" shape="0.00,42.65 -1.72,42.62 -3.43,42.52 -5.14,42.34 -6.84,42.10 -8.53,41.79 -10.21,41.41 -11.87,40.97 -13.51,40.46 -15.13,39.88 -16.72,39.24 -18.29,38.54 -19.82,37.77 -21.33,36.94 -22.80,36.05 -24.23,35.10 -25.62,34.10 -26.98,33.04 -28.28,31.93 -29.55,30.76 -30.76,29.55 -31.93,28.28 -33.04,26.98 -34.10,25.62 -35.10,24.23 -36.05,22.80 -36.94,21.33 -37.77,19.82 -38.54,18.29 -39.24,16.72 -39.88,15.13 -40.46,13.51 -40.97,11.87 -41.41,10.21 -41.79,8.53 -42.10,6.84 -42.34,5.14 -42.52,3.43 -42.62,1.72 -42.65,0.00"/>
  <edge id="left" type="edgeType" from="left" to="bottom" length="67.0" shape="-42.65,0.00 -42.62,-1.72 -42.52,-3.43 -42.34,-5.14 -42.10,-6.84 -41.79,-8.53 -41.41,-10.21 -40.97,-11.87 -40.46,-13.51 -39.88,-15.13 -39.24,-16.72 -38.54,-18.29 -37.77,-19.82 -36.94,-21.33 -36.05,-22.80 -35.10,-24.23 -34.10,-25.62 -33.04,-26.98 -31.93,-28.28 -30.76,-29.55 -29.55,-30.76 -28.28,-31.93 -26.98,-33.04 -25.62,-34.10 -24.23,-35.10 -22.80,-36.05 -21.33,-36.94 -19.82,-37.77 -18.29,-38.54 -16.72,-39.24 -15.13,-39.88 -13.51,-40.46 -11.87,-40.97 -10.21,-41.41 -8.53,-41.79 -6.84,-42.10 -5.14,-42.34 -3.43,-42.52 -1.72,-42.62 -0.00,-42.65"/>
</edges>
