<?xml version='1.0' encoding='UTF-8'?>
<connections xmlns:xsi="http://www.w3.org/2001/XMLSchema-instance" xsi:noNamespaceSchemaLocation="http://sumo.dlr.de/xsd/connections_file.xsd">
  <connection from="bot0_0" to="bot0_1" fromLane="0" toLane="0"/>
  <connection from="top0_1" to="top0_0" fromLane="0" toLane="0"/>
  <connection from="right0_0" to="right1_0" fromLane="0" toLane="0"/>
  <connection from="left1_0" to="left0_0" fromLane="0" toLane="0"/>
  <connection from="bot0_1" to="bot0_2" fromLane="0" toLane="0"/>
  <connection from="top0_2" to="top0_1" fromLane="0" toLane="0"/>
  <connection from="right0_1" to="right1_1" fromLane="0" toLane="0"/>
  <connection from="left1_1" to="left0_1" fromLane="0" toLane="0"/>
  <connection from="bot0_2" to="bot0_3" fromLane="0" toLane="0"/>
  <connection from="top0_3" to="top0_2" fromLane="0" toLane="0"/>
  <connection from="right0_2" to="right1_2" fromLane="0" toLane="0"/>
  <connection from="left1_2" to="left0_2" fromLane="0" toLane="0"/>
  <connection from="bot0_3" to="bot0_4" fromLane="0" toLane="0"/>
  <connection from="top0_4" to="top0_3" fromLane="0" toLane="0"/>
  <connection from="right0_3" to="right1_3" fromLane="0" toLane="0"/>
  <connection from="left1_3" to="left0_3" fromLane="0" toLane="0"/>
  <connection from="bot1_0" to="bot1_1" fromLane="0" toLane="0"/>
  <connection from="top1_1" to="top1_0" fromLane="0" toLane="0"/>
  <connection from="right1_0" to="right2_0" fromLane="0" toLane="0"/>
  <connection from="left2_0" to="left1_0" fromLane="0" toLane="0"/>
  <connection from="bot1_1" to="bot1_2" fromLane="0" toLane="0"/>
  <connection from="top1_2" to="top1_1" fromLane="0" toLane="0"/>
  <connection from="right1_1" to="right2_1" fromLane="0" toLane="0"/>
  <connection from="left2_1" to="left1_1" fromLane="0" toLane="0"/>
  <connection from="bot1_2" to="bot1_3" fromLane="0" toLane="0"/>
  <connection from="top1_3" to="top1_2" fromLane="0" toLane="0"/>
  <connection from="right1_2" to="right2_2" fromLane="0" toLane="0"/>
  <connection from="left2_2" to="left1_2" fromLane="0" toLane="0"/>
  <connection from="bot1_3" to="bot1_4" fromLane="0" toLane="0"/>
  <connection from="top1_4" to="top1_3" fromLane="0" toLane="0"/>
  <connection from="right1_3" to="right2_3" fromLane="0" toLane="0"/>
  <connection from="left2_3" to="left1_3" fromLane="0" toLane="0"/>
  <connection from="bot2_0" to="bot2_1" fromLane="0" toLane="0"/>
  <connection from="top2_1" to="top2_0" fromLane="0" toLane="0"/>
  <connection from="right2_0" to="right3_0" fromLane="0" toLane="0"/>
  <connection from="left3_0" to="left2_0" fromLane="0" toLane="0"/>
  <connection from="bot2_1" to="bot2_2" fromLane="0" toLane="0"/>
  <connection from="top2_2" to="top2_1" fromLane="0" toLane="0"/>
  <connection from="right2_1" to="right3_1" fromLane="0" toLane="0"/>
  <connection from="left3_1" to="left2_1" fromLane="0" toLane="0"/>
  <connection from="bot2_2" to="bot2_3" fromLane="0" toLane="0"/>
  <connection from="top2_3" to="top2_2" fromLane="0" toLane="0"/>
  <connection from="right2_2" to="right3_2" fromLane="0" toLane="0"/>
  <connection from="left3_2" to="left2_2" fromLane="0" toLane="0"/>
  <connection from="bot2_3" to="bot2_4" fromLane="0" toLane="0"/>
  <connection from="top2_4" to="top2_3" fromLane="0" toLane="0"/>
  <connection from="right2_3" to="right3_3" fromLane="0" toLane="0"/>
  <connection from="left3_3" to="left2_3" fromLane="0" toLane="0"/>
  <connection from="bot3_0" to="bot3_1" fromLane="0" toLane="0"/>
  <connection from="top3_1" to="top3_0" fromLane="0" toLane="0"/>
  <connection from="right3_0" to="right4_0" fromLane="0" toLane="0"/>
  <connection from="left4_0" to="left3_0" fromLane="0" toLane="0"/>
  <connection from="bot3_1" to="bot3_2" fromLane="0" toLane="0"/>
  <connection from="top3_2" to="top3_1" fromLane="0" toLane="0"/>
  <connection from="right3_1" to="right4_1" fromLane="0" toLane="0"/>
  <connection from="left4_1" to="left3_1" fromLane="0" toLane="0"/>
  <connection from="bot3_2" to="bot3_3" fromLane="0" toLane="0"/>
  <connection from="top3_3" to="top3_2" fromLane="0" toLane="0"/>
  <connection from="right3_2" to="right4_2" fromLane="0" toLane="0"/>
  <connection from="left4_2" to="left3_2" fromLane="0" toLane="0"/>
  <connection from="bot3_3" to="bot3_4" fromLane="0" toLane="0"/>
  <connection from="top3_4" to="top3_3" fromLane="0" toLane="0"/>
  <connection from="right3_3" to="right4_3" fromLane="0" toLane="0"/>
  <connection from="left4_3" to="left3_3" fromLane="0" toLane="0"/>
</connections>
