<?xml version='1.0' encoding='UTF-8'?>
<edges xmlns:xsi="http://www.w3.org/2001/XMLSchema-instance" xsi:noNamespaceSchemaLocation="http://sumo.dlr.de/xsd/edges_file.xsd">
  <edge id="bottom" type="edgeType" from="bottom" to="right" length="56.75" shape="0.00,-36.13 1.45,-36.10 2.91,-36.01 4.35,-35.86 5.80,-35.66 7.23,-35.40 8.65,-35.08 10.05,-34.70 11.44,-34.27 12.81,-33.78 14.16,-33.24 15.49,-32.64 16.79,-31.99 18.06,-31.29 19.31,-30.54 20.52,-29.73 21.70,-28.88 22.85,-27.99 23.96,-27.04 25.03,-26.06 26.06,-25.03 27.04,-23.96 27.99,-22.85 28.88,-21.70 29.73,-20.52 30.54,-19.31 31.29,-18.06 31.99,-16.79 32.64,-15.49 33.24,-14.16 33.78,-12.81 34.27,-11.44 34.70,-10.05 35.08,-8.65 35.40,-7.23 35.66,-5.80 35.86,-4.35 36.01,-2.91 36.10,-1.45 36.13,0.00"/>
  <edge id="right" type="edgeType" from="right" to="top" length="56.75" shape="36.13,0.00 36.10,1.45 36.01,2.91 35.86,4.35 35.66,5.80 35.40,7.23 35.08,8.65 34.70,10.05 34.27,11.44 33.78,12.81 33.24,14.16 32.64,15.49 31.99,16.79 31.29,18.06 30.54,19.31 29.73,20.52 28.88,21.70 27.99,22.85 27.04,23.96 26.06,25.03 25.03,26.06 23.96,27.04 22.85,27.99 21.70,28.88 20.52,29.73 19.31,30.54 18.06,31.29 16.79,31.99 15.49,32.64 14.16,33.24 12.81,33.78 11.44,34.27 10.05,34.70 8.65,35.08 7.23,35.40 5.80,35.66 4.35,35.86 2.91,36.01 1.45,36.10 0.00,36.13"/>
  <edge id="top" type="edgeType" from="top" to="left" length="56.75" shape="0.00,36.13 -1.45,36.10 -2.91,36.01 -4.35,35.86 -5.80,35.66 -7.23,35.40 -8.65,35.08 -10.05,34.70 -11.44,34.27 -12.81,33.78 -14.16,33.24 -15.49,32.64 -16.79,31.99 -18.06,31.29 -19.31,30.54 -20.52,29.73 -21.70,28.88 -22.85,27.99 -23.96,27.04 -25.03,26.06 -26.06,25.03 -27.04,23.96 -27.99,22.85 -28.88,21.70 -29.73,20.52 -30.54,19.31 -31.29,18.06 -31.99,16.79 -32.64,15.49 -33.24,14.16 -33.78,12.81 -34.27,11.44 -34.70,10.05 -35.08,8.65 -35.40,7.23 -35.66,5.80 -35.86,4.35 -36.01,2.91 -36.10,1.45 -36.13,0.00"/>
  <edge id="left" type="edgeType" from="left" to="bottom" length="56.75" shape="-36.13,0.00 -36.10,-1.45 -36.01,-2.91 -35.86,-4.35 -35.66,-5.80 -35.40,-7.23 -35.08,-8.65 -34.70,-10.05 -34.27,-11.44 -33.78,-12.81 -33.24,-14.16 -32.64,-15.49 -31.99,-16.79 -31.29,-18.06 -30.54,-19.31 -29.73,-20.52 -28.88,-21.70 -27.99,-22.85 -27.04,-23.96 -26.06,-25.03 -25.03,-26.06 -23.96,-27.04 -22.85,-27.99 -21.70,-28.88 -20.52,-29.73 -19.31,-30.54 -18.06,-31.29 -16.79,-31.99 -15.49,-32.64 -14.16,-33.24 -12.81,-33.78 -11.44,-34.27 -10.05,-34.70 -8.65,-35.08 -7.23,-35.40 -5.80,-35.66 -4.35,-35.86 -2.91,-36.01 -1.45,-36.10 -0.00,-36.13"/>
</edges>
